xflr5 v6.61

 Calculated polar for: NACA 23012 - Final do aileron

 1 1 Reynolds number fixed          Mach number fixed         

 xtrf =   0.050 (top)        0.050 (bottom)
 Mach =   0.000     Re =     8.500 e 6     Ncrit =   9.000

  alpha     CL        CD       CDp       Cm    Top Xtr Bot Xtr   Cpmin    Chinge    XCp    
 ------- -------- --------- --------- -------- ------- ------- -------- --------- ---------
  -5.000  -0.4418   0.00822   0.00200  -0.0094  0.0500  0.0149  -3.4602   0.0000   0.0000   0.0000   0.2225
  -4.900  -0.4304   0.00820   0.00197  -0.0094  0.0500  0.0150  -3.3769   0.0000   0.0000   0.0000   0.2219
  -4.800  -0.4192   0.00816   0.00192  -0.0094  0.0500  0.0155  -3.2963   0.0000   0.0000   0.0000   0.2214
  -4.700  -0.4079   0.00812   0.00188  -0.0094  0.0500  0.0161  -3.2156   0.0000   0.0000   0.0000   0.2209
  -4.600  -0.3966   0.00809   0.00185  -0.0094  0.0500  0.0166  -3.1351   0.0000   0.0000   0.0000   0.2203
  -4.500  -0.3852   0.00806   0.00182  -0.0094  0.0500  0.0170  -3.0550   0.0000   0.0000   0.0000   0.2196
  -4.400  -0.3739   0.00803   0.00179  -0.0094  0.0500  0.0173  -2.9754   0.0000   0.0000   0.0000   0.2189
  -4.300  -0.3625   0.00801   0.00176  -0.0094  0.0500  0.0176  -2.8965   0.0000   0.0000   0.0000   0.2182
  -4.200  -0.3512   0.00799   0.00174  -0.0094  0.0500  0.0179  -2.8182   0.0000   0.0000   0.0000   0.2173
  -4.100  -0.3398   0.00797   0.00171  -0.0094  0.0500  0.0181  -2.7406   0.0000   0.0000   0.0000   0.2164
  -4.000  -0.3284   0.00795   0.00169  -0.0094  0.0500  0.0182  -2.6637   0.0000   0.0000   0.0000   0.2155
  -3.900  -0.3170   0.00793   0.00167  -0.0094  0.0500  0.0183  -2.5875   0.0000   0.0000   0.0000   0.2144
  -3.800  -0.3055   0.00791   0.00165  -0.0094  0.0500  0.0185  -2.5122   0.0000   0.0000   0.0000   0.2133
  -3.700  -0.2942   0.00789   0.00162  -0.0094  0.0500  0.0193  -2.4387   0.0000   0.0000   0.0000   0.2121
  -3.600  -0.2828   0.00786   0.00159  -0.0094  0.0500  0.0200  -2.3655   0.0000   0.0000   0.0000   0.2108
  -3.500  -0.2714   0.00784   0.00157  -0.0094  0.0500  0.0206  -2.2928   0.0000   0.0000   0.0000   0.2094
  -3.400  -0.2600   0.00782   0.00155  -0.0094  0.0500  0.0212  -2.2206   0.0000   0.0000   0.0000   0.2079
  -3.300  -0.2486   0.00780   0.00153  -0.0094  0.0500  0.0216  -2.1492   0.0000   0.0000   0.0000   0.2061
  -3.200  -0.2372   0.00779   0.00151  -0.0094  0.0500  0.0219  -2.0845   0.0000   0.0000   0.0000   0.2042
  -3.100  -0.2257   0.00778   0.00150  -0.0094  0.0500  0.0221  -2.0204   0.0000   0.0000   0.0000   0.2021
  -3.000  -0.2143   0.00776   0.00148  -0.0095  0.0500  0.0226  -1.9575   0.0000   0.0000   0.0000   0.1998
  -2.900  -0.2029   0.00774   0.00146  -0.0095  0.0500  0.0237  -1.8954   0.0000   0.0000   0.0000   0.1972
  -2.800  -0.1915   0.00772   0.00144  -0.0095  0.0500  0.0246  -1.8337   0.0000   0.0000   0.0000   0.1943
  -2.700  -0.1801   0.00771   0.00143  -0.0095  0.0500  0.0252  -1.7724   0.0000   0.0000   0.0000   0.1910
  -2.600  -0.1686   0.00769   0.00141  -0.0095  0.0500  0.0258  -1.7117   0.0000   0.0000   0.0000   0.1872
  -2.500  -0.1571   0.00768   0.00140  -0.0095  0.0500  0.0261  -1.6515   0.0000   0.0000   0.0000   0.1829
  -2.400  -0.1457   0.00767   0.00139  -0.0096  0.0500  0.0265  -1.5921   0.0000   0.0000   0.0000   0.1779
  -2.300  -0.1343   0.00766   0.00137  -0.0096  0.0500  0.0279  -1.5336   0.0000   0.0000   0.0000   0.1720
  -2.200  -0.1228   0.00764   0.00136  -0.0096  0.0500  0.0290  -1.4757   0.0000   0.0000   0.0000   0.1651
  -2.100  -0.1114   0.00763   0.00135  -0.0096  0.0500  0.0299  -1.4182   0.0000   0.0000   0.0000   0.1567
  -2.000  -0.0999   0.00763   0.00134  -0.0096  0.0500  0.0305  -1.3613   0.0000   0.0000   0.0000   0.1463
  -1.900  -0.0884   0.00762   0.00133  -0.0097  0.0500  0.0314  -1.3052   0.0000   0.0000   0.0000   0.1332
  -1.800  -0.0770   0.00760   0.00132  -0.0097  0.0500  0.0333  -1.2499   0.0000   0.0000   0.0000   0.1163
  -1.700  -0.0656   0.00759   0.00131  -0.0097  0.0500  0.0345  -1.1983   0.0000   0.0000   0.0000   0.0934
  -1.600  -0.0541   0.00759   0.00131  -0.0097  0.0500  0.0353  -1.1490   0.0000   0.0000   0.0000   0.0607
  -1.500  -0.0426   0.00758   0.00130  -0.0097  0.0500  0.0365  -1.1004   0.0000   0.0000   0.0000   0.0104
  -1.400  -0.0312   0.00757   0.00129  -0.0098  0.0500  0.0384  -1.0524   0.0000   0.0000   0.0000  -0.0766
  -1.300  -0.0197   0.00756   0.00129  -0.0098  0.0500  0.0398  -1.0048   0.0000   0.0000   0.0000  -0.2653
  -1.100   0.0032   0.00755   0.00128  -0.0098  0.0500  0.0432  -0.9113   0.0000   0.0000   0.0000   3.3619
  -1.000   0.0147   0.00754   0.00127  -0.0099  0.0500  0.0452  -0.8653   0.0000   0.0000   0.0000   0.9348
  -0.900   0.0262   0.00754   0.00127  -0.0099  0.0500  0.0474  -0.8199   0.0000   0.0000   0.0000   0.6337
  -0.800   0.0376   0.00753   0.00127  -0.0099  0.0500  0.0500  -0.7751   0.0000   0.0000   0.0000   0.5162
  -0.700   0.0491   0.00753   0.00127  -0.0100  0.0500  0.0500  -0.7319   0.0000   0.0000   0.0000   0.4534
  -0.600   0.0606   0.00754   0.00127  -0.0100  0.0500  0.0500  -0.6921   0.0000   0.0000   0.0000   0.4145
  -0.500   0.0722   0.00754   0.00127  -0.0100  0.0500  0.0500  -0.6527   0.0000   0.0000   0.0000   0.3880
  -0.400   0.0837   0.00754   0.00127  -0.0101  0.0500  0.0500  -0.6515   0.0000   0.0000   0.0000   0.3688
  -0.300   0.0952   0.00755   0.00127  -0.0101  0.0500  0.0500  -0.6659   0.0000   0.0000   0.0000   0.3542
  -0.200   0.1067   0.00755   0.00127  -0.0102  0.0500  0.0500  -0.6805   0.0000   0.0000   0.0000   0.3428
  -0.100   0.1182   0.00756   0.00127  -0.0102  0.0500  0.0500  -0.6950   0.0000   0.0000   0.0000   0.3336
   0.000   0.1297   0.00757   0.00128  -0.0102  0.0500  0.0500  -0.7097   0.0000   0.0000   0.0000   0.3261
   0.100   0.1412   0.00757   0.00128  -0.0103  0.0500  0.0500  -0.7244   0.0000   0.0000   0.0000   0.3197
   0.200   0.1527   0.00758   0.00128  -0.0103  0.0500  0.0500  -0.7391   0.0000   0.0000   0.0000   0.3144
   0.300   0.1642   0.00759   0.00129  -0.0103  0.0500  0.0500  -0.7539   0.0000   0.0000   0.0000   0.3097
   0.400   0.1757   0.00760   0.00129  -0.0104  0.0500  0.0500  -0.7687   0.0000   0.0000   0.0000   0.3057
   0.500   0.1872   0.00760   0.00130  -0.0104  0.0500  0.0500  -0.7842   0.0000   0.0000   0.0000   0.3022
   0.600   0.1987   0.00761   0.00131  -0.0105  0.0500  0.0500  -0.7998   0.0000   0.0000   0.0000   0.2991
   0.700   0.2102   0.00762   0.00131  -0.0105  0.0500  0.0500  -0.8155   0.0000   0.0000   0.0000   0.2963
   0.800   0.2217   0.00763   0.00132  -0.0106  0.0500  0.0500  -0.8313   0.0000   0.0000   0.0000   0.2938
   0.900   0.2332   0.00764   0.00133  -0.0106  0.0500  0.0500  -0.8470   0.0000   0.0000   0.0000   0.2915
   1.000   0.2447   0.00765   0.00134  -0.0106  0.0500  0.0500  -0.8629   0.0000   0.0000   0.0000   0.2895
   1.100   0.2562   0.00766   0.00135  -0.0107  0.0500  0.0500  -0.8788   0.0000   0.0000   0.0000   0.2876
   1.200   0.2677   0.00767   0.00135  -0.0107  0.0500  0.0500  -0.8947   0.0000   0.0000   0.0000   0.2859
   1.300   0.2792   0.00768   0.00136  -0.0108  0.0500  0.0500  -0.9107   0.0000   0.0000   0.0000   0.2843
   1.400   0.2906   0.00770   0.00138  -0.0108  0.0500  0.0500  -0.9274   0.0000   0.0000   0.0000   0.2829
   1.500   0.3021   0.00771   0.00139  -0.0108  0.0500  0.0500  -0.9443   0.0000   0.0000   0.0000   0.2815
   1.600   0.3136   0.00772   0.00140  -0.0109  0.0500  0.0500  -0.9612   0.0000   0.0000   0.0000   0.2803
   1.700   0.3250   0.00773   0.00141  -0.0109  0.0500  0.0500  -0.9782   0.0000   0.0000   0.0000   0.2791
   1.800   0.3365   0.00775   0.00142  -0.0110  0.0500  0.0500  -0.9952   0.0000   0.0000   0.0000   0.2780
   1.900   0.3480   0.00776   0.00144  -0.0110  0.0500  0.0500  -1.0123   0.0000   0.0000   0.0000   0.2770
   2.000   0.3594   0.00777   0.00145  -0.0111  0.0500  0.0500  -1.0294   0.0000   0.0000   0.0000   0.2761
   2.100   0.3709   0.00779   0.00146  -0.0111  0.0500  0.0500  -1.0466   0.0000   0.0000   0.0000   0.2752
   2.200   0.3824   0.00780   0.00148  -0.0111  0.0500  0.0500  -1.0640   0.0000   0.0000   0.0000   0.2743
   2.300   0.3938   0.00782   0.00149  -0.0112  0.0500  0.0500  -1.0821   0.0000   0.0000   0.0000   0.2735
   2.400   0.4052   0.00783   0.00151  -0.0112  0.0500  0.0500  -1.1003   0.0000   0.0000   0.0000   0.2727
   2.500   0.4167   0.00785   0.00152  -0.0113  0.0500  0.0500  -1.1186   0.0000   0.0000   0.0000   0.2720
   2.600   0.4281   0.00787   0.00154  -0.0113  0.0500  0.0500  -1.1369   0.0000   0.0000   0.0000   0.2713
   2.700   0.4396   0.00788   0.00156  -0.0114  0.0500  0.0500  -1.1552   0.0000   0.0000   0.0000   0.2707
   2.800   0.4510   0.00790   0.00157  -0.0114  0.0500  0.0500  -1.1737   0.0000   0.0000   0.0000   0.2700
   2.900   0.4624   0.00792   0.00159  -0.0114  0.0500  0.0500  -1.1922   0.0000   0.0000   0.0000   0.2694
   3.000   0.4738   0.00794   0.00161  -0.0115  0.0500  0.0500  -1.2107   0.0000   0.0000   0.0000   0.2688
   3.100   0.4853   0.00795   0.00163  -0.0115  0.0500  0.0500  -1.2298   0.0000   0.0000   0.0000   0.2683
   3.200   0.4967   0.00797   0.00165  -0.0116  0.0500  0.0500  -1.2494   0.0000   0.0000   0.0000   0.2678
   3.300   0.5081   0.00799   0.00167  -0.0116  0.0500  0.0500  -1.2690   0.0000   0.0000   0.0000   0.2672
   3.400   0.5195   0.00801   0.00169  -0.0117  0.0500  0.0500  -1.2887   0.0000   0.0000   0.0000   0.2668
   3.500   0.5309   0.00803   0.00171  -0.0117  0.0500  0.0500  -1.3084   0.0000   0.0000   0.0000   0.2663
   3.600   0.5423   0.00805   0.00173  -0.0117  0.0500  0.0500  -1.3282   0.0000   0.0000   0.0000   0.2658
   3.700   0.5537   0.00807   0.00175  -0.0118  0.0500  0.0500  -1.3481   0.0000   0.0000   0.0000   0.2654
   3.800   0.5650   0.00809   0.00178  -0.0118  0.0500  0.0500  -1.3680   0.0000   0.0000   0.0000   0.2649
   3.900   0.5764   0.00811   0.00180  -0.0119  0.0500  0.0500  -1.3881   0.0000   0.0000   0.0000   0.2645
   4.000   0.5878   0.00813   0.00182  -0.0119  0.0500  0.0500  -1.4091   0.0000   0.0000   0.0000   0.2641
   4.100   0.5992   0.00816   0.00185  -0.0119  0.0500  0.0500  -1.4301   0.0000   0.0000   0.0000   0.2637
   4.200   0.6105   0.00818   0.00187  -0.0120  0.0500  0.0500  -1.4513   0.0000   0.0000   0.0000   0.2633
   4.300   0.6219   0.00820   0.00190  -0.0120  0.0500  0.0500  -1.4725   0.0000   0.0000   0.0000   0.2629
   4.400   0.6332   0.00822   0.00192  -0.0121  0.0500  0.0500  -1.4937   0.0000   0.0000   0.0000   0.2626
   4.500   0.6446   0.00825   0.00195  -0.0121  0.0500  0.0500  -1.5151   0.0000   0.0000   0.0000   0.2622
   4.600   0.6559   0.00827   0.00197  -0.0121  0.0500  0.0500  -1.5365   0.0000   0.0000   0.0000   0.2619
   4.700   0.6672   0.00830   0.00200  -0.0122  0.0500  0.0500  -1.5580   0.0000   0.0000   0.0000   0.2615
   4.800   0.6786   0.00832   0.00203  -0.0122  0.0500  0.0500  -1.5797   0.0000   0.0000   0.0000   0.2612
   4.900   0.6899   0.00835   0.00206  -0.0123  0.0500  0.0500  -1.6023   0.0000   0.0000   0.0000   0.2609
   5.000   0.7012   0.00837   0.00209  -0.0123  0.0500  0.0500  -1.6250   0.0000   0.0000   0.0000   0.2605
   5.100   0.7125   0.00840   0.00211  -0.0123  0.0500  0.0500  -1.6478   0.0000   0.0000   0.0000   0.2602
   5.200   0.7238   0.00842   0.00214  -0.0124  0.0500  0.0500  -1.6706   0.0000   0.0000   0.0000   0.2599
   5.300   0.7351   0.00845   0.00217  -0.0124  0.0500  0.0500  -1.6935   0.0000   0.0000   0.0000   0.2596
   5.400   0.7464   0.00848   0.00220  -0.0124  0.0500  0.0500  -1.7192   0.0000   0.0000   0.0000   0.2593
   5.500   0.7576   0.00851   0.00224  -0.0125  0.0500  0.0500  -1.7460   0.0000   0.0000   0.0000   0.2590
   5.600   0.7689   0.00853   0.00227  -0.0125  0.0500  0.0500  -1.7729   0.0000   0.0000   0.0000   0.2587
   5.700   0.7802   0.00856   0.00230  -0.0126  0.0500  0.0500  -1.7999   0.0000   0.0000   0.0000   0.2584
   5.800   0.7914   0.00859   0.00233  -0.0126  0.0500  0.0500  -1.8270   0.0000   0.0000   0.0000   0.2581
   5.900   0.8027   0.00862   0.00237  -0.0126  0.0500  0.0500  -1.8542   0.0000   0.0000   0.0000   0.2579
   6.000   0.8139   0.00865   0.00240  -0.0127  0.0500  0.0500  -1.8815   0.0000   0.0000   0.0000   0.2576
   6.100   0.8251   0.00868   0.00243  -0.0127  0.0500  0.0500  -1.9089   0.0000   0.0000   0.0000   0.2573
   6.200   0.8363   0.00871   0.00247  -0.0127  0.0500  0.0500  -1.9365   0.0000   0.0000   0.0000   0.2570
   6.300   0.8476   0.00874   0.00250  -0.0128  0.0500  0.0500  -1.9641   0.0000   0.0000   0.0000   0.2568
   6.400   0.8588   0.00877   0.00254  -0.0128  0.0500  0.0500  -1.9918   0.0000   0.0000   0.0000   0.2565
   6.500   0.8700   0.00881   0.00258  -0.0128  0.0500  0.0500  -2.0197   0.0000   0.0000   0.0000   0.2562
   6.600   0.8811   0.00884   0.00261  -0.0128  0.0500  0.0500  -2.0487   0.0000   0.0000   0.0000   0.2560
   6.700   0.8923   0.00887   0.00265  -0.0129  0.0500  0.0500  -2.0782   0.0000   0.0000   0.0000   0.2557
   6.800   0.9035   0.00890   0.00269  -0.0129  0.0500  0.0500  -2.1078   0.0000   0.0000   0.0000   0.2555
   6.900   0.9146   0.00894   0.00273  -0.0129  0.0500  0.0500  -2.1376   0.0000   0.0000   0.0000   0.2552
   7.000   0.9258   0.00897   0.00277  -0.0130  0.0500  0.0500  -2.1675   0.0000   0.0000   0.0000   0.2550
   7.100   0.9369   0.00901   0.00281  -0.0130  0.0500  0.0500  -2.1975   0.0000   0.0000   0.0000   0.2547
   7.200   0.9481   0.00904   0.00285  -0.0130  0.0500  0.0500  -2.2276   0.0000   0.0000   0.0000   0.2545
   7.300   0.9592   0.00908   0.00289  -0.0130  0.0500  0.0500  -2.2594   0.0000   0.0000   0.0000   0.2542
   7.400   0.9703   0.00911   0.00293  -0.0131  0.0500  0.0500  -2.2928   0.0000   0.0000   0.0000   0.2540
   7.500   0.9814   0.00915   0.00297  -0.0131  0.0500  0.0500  -2.3280   0.0000   0.0000   0.0000   0.2537
   7.600   0.9925   0.00919   0.00301  -0.0131  0.0500  0.0500  -2.3648   0.0000   0.0000   0.0000   0.2535
   7.700   1.0036   0.00922   0.00306  -0.0131  0.0500  0.0500  -2.4039   0.0000   0.0000   0.0000   0.2532
   7.800   1.0146   0.00926   0.00310  -0.0132  0.0500  0.0500  -2.4458   0.0000   0.0000   0.0000   0.2530
   7.900   1.0257   0.00930   0.00314  -0.0132  0.0500  0.0500  -2.4913   0.0000   0.0000   0.0000   0.2527
   8.000   1.0367   0.00934   0.00319  -0.0132  0.0500  0.0500  -2.5391   0.0000   0.0000   0.0000   0.2525
   8.100   1.0478   0.00938   0.00324  -0.0132  0.0500  0.0500  -2.5885   0.0000   0.0000   0.0000   0.2522
   8.200   1.0588   0.00942   0.00328  -0.0132  0.0500  0.0500  -2.6413   0.0000   0.0000   0.0000   0.2520
   8.300   1.0698   0.00946   0.00333  -0.0132  0.0500  0.0500  -2.6948   0.0000   0.0000   0.0000   0.2517
   8.400   1.0808   0.00950   0.00338  -0.0133  0.0500  0.0500  -2.7498   0.0000   0.0000   0.0000   0.2515
   8.500   1.0918   0.00954   0.00342  -0.0133  0.0500  0.0500  -2.8080   0.0000   0.0000   0.0000   0.2513
   8.600   1.1028   0.00958   0.00347  -0.0133  0.0500  0.0500  -2.8667   0.0000   0.0000   0.0000   0.2510
   8.700   1.1138   0.00962   0.00352  -0.0133  0.0500  0.0500  -2.9257   0.0000   0.0000   0.0000   0.2508
   8.800   1.1247   0.00966   0.00357  -0.0133  0.0500  0.0500  -2.9856   0.0000   0.0000   0.0000   0.2505
   8.900   1.1357   0.00971   0.00362  -0.0133  0.0500  0.0500  -3.0500   0.0000   0.0000   0.0000   0.2503
   9.000   1.1466   0.00975   0.00367  -0.0133  0.0500  0.0500  -3.1149   0.0000   0.0000   0.0000   0.2501
   9.100   1.1575   0.00979   0.00373  -0.0133  0.0500  0.0500  -3.1803   0.0000   0.0000   0.0000   0.2498
   9.200   1.1684   0.00984   0.00378  -0.0133  0.0500  0.0500  -3.2461   0.0000   0.0000   0.0000   0.2496
   9.300   1.1793   0.00988   0.00383  -0.0133  0.0500  0.0500  -3.3123   0.0000   0.0000   0.0000   0.2493
   9.400   1.1902   0.00993   0.00388  -0.0134  0.0500  0.0500  -3.3790   0.0000   0.0000   0.0000   0.2491
   9.500   1.2010   0.00997   0.00394  -0.0134  0.0500  0.0500  -3.4510   0.0000   0.0000   0.0000   0.2488
   9.600   1.2119   0.01002   0.00399  -0.0134  0.0500  0.0500  -3.5240   0.0000   0.0000   0.0000   0.2486
   9.700   1.2227   0.01007   0.00405  -0.0134  0.0500  0.0500  -3.5974   0.0000   0.0000   0.0000   0.2484
   9.800   1.2335   0.01012   0.00411  -0.0134  0.0500  0.0500  -3.6714   0.0000   0.0000   0.0000   0.2481
   9.900   1.2443   0.01016   0.00416  -0.0134  0.0500  0.0500  -3.7459   0.0000   0.0000   0.0000   0.2479
  10.000   1.2551   0.01021   0.00422  -0.0133  0.0500  0.0500  -3.8209   0.0000   0.0000   0.0000   0.2476
  10.100   1.2659   0.01026   0.00428  -0.0133  0.0500  0.0500  -3.8965   0.0000   0.0000   0.0000   0.2474
  10.200   1.2766   0.01031   0.00434  -0.0133  0.0500  0.0500  -3.9725   0.0000   0.0000   0.0000   0.2471
  10.300   1.2873   0.01038   0.00441  -0.0133  0.0496  0.0500  -4.0486   0.0000   0.0000   0.0000   0.2469
  10.400   1.2970   0.01053   0.00454  -0.0131  0.0461  0.0500  -4.1220   0.0000   0.0000   0.0000   0.2465
  10.500   1.3072   0.01063   0.00464  -0.0131  0.0443  0.0500  -4.2032   0.0000   0.0000   0.0000   0.2462
  10.600   1.3169   0.01078   0.00478  -0.0129  0.0416  0.0500  -4.2829   0.0000   0.0000   0.0000   0.2459
  10.700   1.3271   0.01088   0.00487  -0.0128  0.0400  0.0500  -4.3655   0.0000   0.0000   0.0000   0.2456
  10.800   1.3371   0.01100   0.00499  -0.0127  0.0382  0.0500  -4.4476   0.0000   0.0000   0.0000   0.2452
  10.900   1.3468   0.01115   0.00512  -0.0125  0.0357  0.0500  -4.5291   0.0000   0.0000   0.0000   0.2449
  11.000   1.3570   0.01124   0.00522  -0.0125  0.0346  0.0500  -4.6135   0.0000   0.0000   0.0000   0.2446
  11.100   1.3668   0.01137   0.00534  -0.0123  0.0330  0.0500  -4.6968   0.0000   0.0000   0.0000   0.2443
  11.200   1.3765   0.01152   0.00547  -0.0122  0.0309  0.0500  -4.7798   0.0000   0.0000   0.0000   0.2439
  11.300   1.3866   0.01161   0.00557  -0.0121  0.0301  0.0500  -4.8658   0.0000   0.0000   0.0000   0.2437
  11.400   1.3964   0.01173   0.00569  -0.0119  0.0288  0.0500  -4.9510   0.0000   0.0000   0.0000   0.2433
  11.500   1.4059   0.01188   0.00583  -0.0118  0.0271  0.0500  -5.0352   0.0000   0.0000   0.0000   0.2430
  11.600   1.4158   0.01199   0.00594  -0.0117  0.0260  0.0500  -5.1220   0.0000   0.0000   0.0000   0.2427
  11.700   1.4257   0.01211   0.00606  -0.0115  0.0250  0.0500  -5.2090   0.0000   0.0000   0.0000   0.2424
  11.800   1.4350   0.01227   0.00621  -0.0113  0.0236  0.0500  -5.2944   0.0000   0.0000   0.0000   0.2420
  11.900   1.4446   0.01240   0.00634  -0.0112  0.0221  0.0500  -5.3813   0.0000   0.0000   0.0000   0.2417
  12.000   1.4545   0.01251   0.00645  -0.0110  0.0216  0.0500  -5.4712   0.0000   0.0000   0.0000   0.2414
  12.100   1.4641   0.01263   0.00658  -0.0109  0.0208  0.0500  -5.5664   0.0000   0.0000   0.0000   0.2410
  12.200   1.4735   0.01278   0.00672  -0.0107  0.0199  0.0500  -5.6609   0.0000   0.0000   0.0000   0.2407
  12.300   1.4829   0.01292   0.00686  -0.0105  0.0188  0.0500  -5.7561   0.0000   0.0000   0.0000   0.2404
  12.400   1.4927   0.01303   0.00697  -0.0104  0.0182  0.0500  -5.8537   0.0000   0.0000   0.0000   0.2400
  12.500   1.5024   0.01314   0.00709  -0.0103  0.0179  0.0500  -5.9520   0.0000   0.0000   0.0000   0.2397
  12.600   1.5119   0.01326   0.00722  -0.0101  0.0174  0.0500  -6.0500   0.0000   0.0000   0.0000   0.2394
  12.700   1.5212   0.01340   0.00736  -0.0099  0.0168  0.0500  -6.1474   0.0000   0.0000   0.0000   0.2391
  12.800   1.5303   0.01355   0.00751  -0.0097  0.0160  0.0500  -6.2446   0.0000   0.0000   0.0000   0.2387
  12.900   1.5396   0.01369   0.00765  -0.0095  0.0152  0.0500  -6.3428   0.0000   0.0000   0.0000   0.2383
  13.000   1.5490   0.01381   0.00778  -0.0093  0.0148  0.0500  -6.4432   0.0000   0.0000   0.0000   0.2380
  13.100   1.5585   0.01392   0.00790  -0.0091  0.0146  0.0500  -6.5443   0.0000   0.0000   0.0000   0.2377
  13.200   1.5678   0.01405   0.00803  -0.0090  0.0143  0.0500  -6.6454   0.0000   0.0000   0.0000   0.2374
  13.300   1.5769   0.01418   0.00817  -0.0088  0.0140  0.0500  -6.7461   0.0000   0.0000   0.0000   0.2370
  13.400   1.5859   0.01433   0.00832  -0.0085  0.0135  0.0500  -6.8462   0.0000   0.0000   0.0000   0.2366
  13.500   1.5946   0.01449   0.00849  -0.0083  0.0131  0.0500  -6.9460   0.0000   0.0000   0.0000   0.2363
  13.600   1.6034   0.01465   0.00865  -0.0080  0.0125  0.0500  -7.0464   0.0000   0.0000   0.0000   0.2359
  13.700   1.6123   0.01479   0.00880  -0.0078  0.0120  0.0500  -7.1479   0.0000   0.0000   0.0000   0.2355
  13.800   1.6213   0.01492   0.00893  -0.0075  0.0118  0.0500  -7.2513   0.0000   0.0000   0.0000   0.2352
  13.900   1.6303   0.01505   0.00907  -0.0073  0.0117  0.0500  -7.3552   0.0000   0.0000   0.0000   0.2348
  14.000   1.6392   0.01518   0.00921  -0.0071  0.0115  0.0500  -7.4589   0.0000   0.0000   0.0000   0.2345
  14.100   1.6479   0.01533   0.00936  -0.0068  0.0112  0.0500  -7.5623   0.0000   0.0000   0.0000   0.2341
  14.200   1.6563   0.01549   0.00953  -0.0065  0.0109  0.0500  -7.6649   0.0000   0.0000   0.0000   0.2337
  14.300   1.6645   0.01566   0.00971  -0.0062  0.0106  0.0500  -7.7666   0.0000   0.0000   0.0000   0.2333
  14.400   1.6725   0.01585   0.00990  -0.0058  0.0102  0.0500  -7.8676   0.0000   0.0000   0.0000   0.2328
  15.000   1.7203   0.01577   0.01120  -0.0040  0.0089  1.0000  -8.4896   0.0000   0.0000   0.0000   0.2305


