xflr5 v6.61

 Calculated polar for: NACA 23012 - Inicio do Aileron

 1 1 Reynolds number fixed          Mach number fixed         

 xtrf =   0.050 (top)        0.050 (bottom)
 Mach =   0.000     Re =    11.000 e 6     Ncrit =   9.000

  alpha     CL        CD       CDp       Cm    Top Xtr Bot Xtr   Cpmin    Chinge    XCp    
 ------- -------- --------- --------- -------- ------- ------- -------- --------- ---------
  -5.000  -0.4444   0.00800   0.00192  -0.0086  0.0500  0.0200  -2.9665   0.0000   0.0000   0.0000   0.2233
  -4.900  -0.4329   0.00798   0.00190  -0.0086  0.0500  0.0201  -2.8952   0.0000   0.0000   0.0000   0.2229
  -4.800  -0.4215   0.00796   0.00187  -0.0086  0.0500  0.0203  -2.8245   0.0000   0.0000   0.0000   0.2223
  -4.700  -0.4101   0.00794   0.00185  -0.0086  0.0500  0.0204  -2.7544   0.0000   0.0000   0.0000   0.2218
  -4.600  -0.3986   0.00792   0.00183  -0.0086  0.0500  0.0204  -2.6848   0.0000   0.0000   0.0000   0.2211
  -4.500  -0.3872   0.00790   0.00180  -0.0086  0.0500  0.0209  -2.6165   0.0000   0.0000   0.0000   0.2205
  -4.400  -0.3758   0.00787   0.00177  -0.0086  0.0500  0.0217  -2.5489   0.0000   0.0000   0.0000   0.2199
  -4.300  -0.3645   0.00784   0.00175  -0.0086  0.0500  0.0224  -2.4817   0.0000   0.0000   0.0000   0.2191
  -4.200  -0.3531   0.00782   0.00173  -0.0087  0.0500  0.0229  -2.4150   0.0000   0.0000   0.0000   0.2184
  -4.100  -0.3416   0.00780   0.00170  -0.0087  0.0500  0.0234  -2.3488   0.0000   0.0000   0.0000   0.2175
  -4.000  -0.3302   0.00778   0.00168  -0.0087  0.0500  0.0238  -2.2831   0.0000   0.0000   0.0000   0.2166
  -3.900  -0.3187   0.00776   0.00166  -0.0087  0.0500  0.0241  -2.2180   0.0000   0.0000   0.0000   0.2156
  -3.800  -0.3072   0.00775   0.00165  -0.0087  0.0500  0.0243  -2.1534   0.0000   0.0000   0.0000   0.2145
  -3.700  -0.2957   0.00774   0.00163  -0.0087  0.0500  0.0245  -2.0930   0.0000   0.0000   0.0000   0.2134
  -3.600  -0.2843   0.00772   0.00161  -0.0087  0.0500  0.0254  -2.0351   0.0000   0.0000   0.0000   0.2121
  -3.500  -0.2729   0.00769   0.00159  -0.0088  0.0500  0.0265  -1.9776   0.0000   0.0000   0.0000   0.2108
  -3.400  -0.2614   0.00767   0.00157  -0.0088  0.0500  0.0272  -1.9205   0.0000   0.0000   0.0000   0.2093
  -3.300  -0.2500   0.00766   0.00156  -0.0088  0.0500  0.0279  -1.8637   0.0000   0.0000   0.0000   0.2076
  -3.200  -0.2385   0.00764   0.00154  -0.0088  0.0500  0.0283  -1.8074   0.0000   0.0000   0.0000   0.2058
  -3.100  -0.2270   0.00763   0.00153  -0.0088  0.0500  0.0287  -1.7516   0.0000   0.0000   0.0000   0.2038
  -3.000  -0.2154   0.00762   0.00151  -0.0089  0.0500  0.0288  -1.6963   0.0000   0.0000   0.0000   0.2015
  -2.900  -0.2040   0.00761   0.00150  -0.0089  0.0500  0.0299  -1.6418   0.0000   0.0000   0.0000   0.1990
  -2.800  -0.1925   0.00759   0.00149  -0.0089  0.0500  0.0311  -1.5879   0.0000   0.0000   0.0000   0.1963
  -2.700  -0.1810   0.00758   0.00147  -0.0089  0.0500  0.0320  -1.5344   0.0000   0.0000   0.0000   0.1931
  -2.600  -0.1695   0.00757   0.00146  -0.0089  0.0500  0.0328  -1.4814   0.0000   0.0000   0.0000   0.1895
  -2.500  -0.1580   0.00756   0.00145  -0.0090  0.0500  0.0333  -1.4288   0.0000   0.0000   0.0000   0.1854
  -2.400  -0.1465   0.00755   0.00144  -0.0090  0.0500  0.0339  -1.3767   0.0000   0.0000   0.0000   0.1805
  -2.300  -0.1350   0.00754   0.00143  -0.0090  0.0500  0.0357  -1.3283   0.0000   0.0000   0.0000   0.1750
  -2.200  -0.1235   0.00752   0.00142  -0.0091  0.0500  0.0371  -1.2816   0.0000   0.0000   0.0000   0.1684
  -2.100  -0.1120   0.00751   0.00141  -0.0091  0.0500  0.0380  -1.2353   0.0000   0.0000   0.0000   0.1603
  -2.000  -0.1005   0.00751   0.00140  -0.0091  0.0500  0.0386  -1.1894   0.0000   0.0000   0.0000   0.1503
  -1.900  -0.0889   0.00750   0.00140  -0.0092  0.0500  0.0400  -1.1441   0.0000   0.0000   0.0000   0.1378
  -1.800  -0.0774   0.00749   0.00139  -0.0092  0.0500  0.0417  -1.0994   0.0000   0.0000   0.0000   0.1216
  -1.700  -0.0659   0.00748   0.00138  -0.0092  0.0500  0.0430  -1.0549   0.0000   0.0000   0.0000   0.0997
  -1.600  -0.0544   0.00748   0.00138  -0.0092  0.0500  0.0439  -1.0109   0.0000   0.0000   0.0000   0.0684
  -1.500  -0.0429   0.00747   0.00137  -0.0093  0.0500  0.0456  -0.9674   0.0000   0.0000   0.0000   0.0203
  -1.400  -0.0314   0.00746   0.00137  -0.0093  0.0500  0.0479  -0.9244   0.0000   0.0000   0.0000  -0.0627
  -1.300  -0.0199   0.00745   0.00136  -0.0093  0.0500  0.0495  -0.8819   0.0000   0.0000   0.0000  -0.2427
  -1.200  -0.0083   0.00745   0.00136  -0.0094  0.0500  0.0500  -0.8432   0.0000   0.0000   0.0000  -0.9268
  -1.100   0.0033   0.00745   0.00136  -0.0094  0.0500  0.0500  -0.8049   0.0000   0.0000   0.0000   3.2145
  -1.000   0.0149   0.00746   0.00136  -0.0095  0.0500  0.0500  -0.7670   0.0000   0.0000   0.0000   0.9038
  -0.900   0.0264   0.00746   0.00136  -0.0095  0.0500  0.0500  -0.7295   0.0000   0.0000   0.0000   0.6167
  -0.800   0.0380   0.00746   0.00136  -0.0096  0.0500  0.0500  -0.6923   0.0000   0.0000   0.0000   0.5045
  -0.700   0.0496   0.00747   0.00136  -0.0096  0.0500  0.0500  -0.6581   0.0000   0.0000   0.0000   0.4447
  -0.600   0.0611   0.00747   0.00136  -0.0097  0.0500  0.0500  -0.6723   0.0000   0.0000   0.0000   0.4075
  -0.500   0.0727   0.00748   0.00136  -0.0097  0.0500  0.0500  -0.6866   0.0000   0.0000   0.0000   0.3822
  -0.400   0.0843   0.00748   0.00136  -0.0097  0.0500  0.0500  -0.7009   0.0000   0.0000   0.0000   0.3638
  -0.300   0.0959   0.00749   0.00137  -0.0098  0.0500  0.0500  -0.7153   0.0000   0.0000   0.0000   0.3498
  -0.200   0.1074   0.00749   0.00137  -0.0098  0.0500  0.0500  -0.7297   0.0000   0.0000   0.0000   0.3389
  -0.100   0.1190   0.00750   0.00137  -0.0099  0.0500  0.0500  -0.7441   0.0000   0.0000   0.0000   0.3301
   0.000   0.1306   0.00750   0.00138  -0.0099  0.0500  0.0500  -0.7587   0.0000   0.0000   0.0000   0.3228
   0.100   0.1421   0.00751   0.00138  -0.0100  0.0500  0.0500  -0.7732   0.0000   0.0000   0.0000   0.3168
   0.200   0.1537   0.00752   0.00139  -0.0100  0.0500  0.0500  -0.7884   0.0000   0.0000   0.0000   0.3116
   0.300   0.1652   0.00753   0.00139  -0.0101  0.0500  0.0500  -0.8038   0.0000   0.0000   0.0000   0.3072
   0.400   0.1768   0.00753   0.00140  -0.0101  0.0500  0.0500  -0.8191   0.0000   0.0000   0.0000   0.3033
   0.500   0.1884   0.00754   0.00140  -0.0102  0.0500  0.0500  -0.8346   0.0000   0.0000   0.0000   0.2999
   0.600   0.1999   0.00755   0.00141  -0.0102  0.0500  0.0500  -0.8500   0.0000   0.0000   0.0000   0.2969
   0.700   0.2115   0.00756   0.00142  -0.0103  0.0500  0.0500  -0.8656   0.0000   0.0000   0.0000   0.2942
   0.800   0.2230   0.00757   0.00143  -0.0103  0.0500  0.0500  -0.8811   0.0000   0.0000   0.0000   0.2918
   0.900   0.2346   0.00758   0.00143  -0.0104  0.0500  0.0500  -0.8968   0.0000   0.0000   0.0000   0.2897
   1.000   0.2461   0.00759   0.00144  -0.0104  0.0500  0.0500  -0.9125   0.0000   0.0000   0.0000   0.2877
   1.100   0.2577   0.00760   0.00145  -0.0105  0.0500  0.0500  -0.9284   0.0000   0.0000   0.0000   0.2859
   1.200   0.2692   0.00761   0.00146  -0.0105  0.0500  0.0500  -0.9449   0.0000   0.0000   0.0000   0.2842
   1.300   0.2807   0.00762   0.00147  -0.0106  0.0500  0.0500  -0.9615   0.0000   0.0000   0.0000   0.2827
   1.400   0.2923   0.00763   0.00148  -0.0106  0.0500  0.0500  -0.9781   0.0000   0.0000   0.0000   0.2813
   1.500   0.3038   0.00765   0.00149  -0.0107  0.0500  0.0500  -0.9948   0.0000   0.0000   0.0000   0.2800
   1.600   0.3153   0.00766   0.00151  -0.0107  0.0500  0.0500  -1.0115   0.0000   0.0000   0.0000   0.2788
   1.700   0.3268   0.00767   0.00152  -0.0108  0.0500  0.0500  -1.0283   0.0000   0.0000   0.0000   0.2777
   1.800   0.3384   0.00768   0.00153  -0.0108  0.0500  0.0500  -1.0451   0.0000   0.0000   0.0000   0.2767
   1.900   0.3499   0.00770   0.00154  -0.0109  0.0500  0.0500  -1.0620   0.0000   0.0000   0.0000   0.2757
   2.000   0.3614   0.00771   0.00156  -0.0109  0.0500  0.0500  -1.0790   0.0000   0.0000   0.0000   0.2748
   2.100   0.3729   0.00772   0.00157  -0.0110  0.0500  0.0500  -1.0967   0.0000   0.0000   0.0000   0.2739
   2.200   0.3844   0.00774   0.00158  -0.0110  0.0500  0.0500  -1.1145   0.0000   0.0000   0.0000   0.2731
   2.300   0.3959   0.00775   0.00160  -0.0111  0.0500  0.0500  -1.1324   0.0000   0.0000   0.0000   0.2723
   2.400   0.4074   0.00777   0.00161  -0.0111  0.0500  0.0500  -1.1504   0.0000   0.0000   0.0000   0.2716
   2.500   0.4189   0.00778   0.00163  -0.0112  0.0500  0.0500  -1.1684   0.0000   0.0000   0.0000   0.2709
   2.600   0.4304   0.00780   0.00165  -0.0112  0.0500  0.0500  -1.1865   0.0000   0.0000   0.0000   0.2702
   2.700   0.4419   0.00782   0.00166  -0.0113  0.0500  0.0500  -1.2046   0.0000   0.0000   0.0000   0.2695
   2.800   0.4534   0.00783   0.00168  -0.0114  0.0500  0.0500  -1.2228   0.0000   0.0000   0.0000   0.2689
   2.900   0.4649   0.00785   0.00170  -0.0114  0.0500  0.0500  -1.2411   0.0000   0.0000   0.0000   0.2684
   3.000   0.4763   0.00787   0.00171  -0.0115  0.0500  0.0500  -1.2598   0.0000   0.0000   0.0000   0.2678
   3.100   0.4878   0.00789   0.00173  -0.0115  0.0500  0.0500  -1.2790   0.0000   0.0000   0.0000   0.2673
   3.200   0.4993   0.00790   0.00175  -0.0116  0.0500  0.0500  -1.2983   0.0000   0.0000   0.0000   0.2667
   3.300   0.5107   0.00792   0.00177  -0.0116  0.0500  0.0500  -1.3176   0.0000   0.0000   0.0000   0.2662
   3.400   0.5222   0.00794   0.00179  -0.0117  0.0500  0.0500  -1.3370   0.0000   0.0000   0.0000   0.2658
   3.500   0.5336   0.00796   0.00181  -0.0117  0.0500  0.0500  -1.3565   0.0000   0.0000   0.0000   0.2653
   3.600   0.5451   0.00798   0.00183  -0.0118  0.0500  0.0500  -1.3760   0.0000   0.0000   0.0000   0.2649
   3.700   0.5565   0.00800   0.00185  -0.0118  0.0500  0.0500  -1.3956   0.0000   0.0000   0.0000   0.2644
   3.800   0.5679   0.00802   0.00187  -0.0119  0.0500  0.0500  -1.4152   0.0000   0.0000   0.0000   0.2640
   3.900   0.5794   0.00804   0.00190  -0.0119  0.0500  0.0500  -1.4352   0.0000   0.0000   0.0000   0.2636
   4.000   0.5908   0.00806   0.00192  -0.0119  0.0500  0.0500  -1.4559   0.0000   0.0000   0.0000   0.2632
   4.100   0.6022   0.00808   0.00194  -0.0120  0.0500  0.0500  -1.4766   0.0000   0.0000   0.0000   0.2628
   4.200   0.6136   0.00811   0.00196  -0.0120  0.0500  0.0500  -1.4974   0.0000   0.0000   0.0000   0.2624
   4.300   0.6250   0.00813   0.00199  -0.0121  0.0500  0.0500  -1.5183   0.0000   0.0000   0.0000   0.2621
   4.400   0.6364   0.00815   0.00201  -0.0121  0.0500  0.0500  -1.5392   0.0000   0.0000   0.0000   0.2617
   4.500   0.6478   0.00817   0.00204  -0.0122  0.0500  0.0500  -1.5602   0.0000   0.0000   0.0000   0.2614
   4.600   0.6592   0.00820   0.00206  -0.0122  0.0500  0.0500  -1.5813   0.0000   0.0000   0.0000   0.2610
   4.700   0.6706   0.00822   0.00209  -0.0123  0.0500  0.0500  -1.6025   0.0000   0.0000   0.0000   0.2607
   4.800   0.6819   0.00825   0.00212  -0.0123  0.0500  0.0500  -1.6240   0.0000   0.0000   0.0000   0.2604
   4.900   0.6933   0.00827   0.00214  -0.0124  0.0500  0.0500  -1.6463   0.0000   0.0000   0.0000   0.2600
   5.000   0.7046   0.00829   0.00217  -0.0124  0.0500  0.0500  -1.6686   0.0000   0.0000   0.0000   0.2597
   5.100   0.7160   0.00832   0.00220  -0.0125  0.0500  0.0500  -1.6910   0.0000   0.0000   0.0000   0.2594
   5.200   0.7273   0.00835   0.00223  -0.0125  0.0500  0.0500  -1.7134   0.0000   0.0000   0.0000   0.2591
   5.300   0.7387   0.00837   0.00225  -0.0126  0.0500  0.0500  -1.7359   0.0000   0.0000   0.0000   0.2588
   5.400   0.7500   0.00840   0.00228  -0.0126  0.0500  0.0500  -1.7585   0.0000   0.0000   0.0000   0.2585
   5.500   0.7613   0.00843   0.00231  -0.0126  0.0500  0.0500  -1.7812   0.0000   0.0000   0.0000   0.2582
   5.600   0.7726   0.00845   0.00234  -0.0127  0.0500  0.0500  -1.8039   0.0000   0.0000   0.0000   0.2579
   5.700   0.7839   0.00848   0.00237  -0.0127  0.0500  0.0500  -1.8267   0.0000   0.0000   0.0000   0.2577
   5.800   0.7952   0.00851   0.00240  -0.0128  0.0500  0.0500  -1.8496   0.0000   0.0000   0.0000   0.2574
   5.900   0.8065   0.00854   0.00244  -0.0128  0.0500  0.0500  -1.8736   0.0000   0.0000   0.0000   0.2571
   6.000   0.8178   0.00857   0.00247  -0.0128  0.0500  0.0500  -1.8976   0.0000   0.0000   0.0000   0.2568
   6.100   0.8291   0.00860   0.00250  -0.0129  0.0500  0.0500  -1.9217   0.0000   0.0000   0.0000   0.2566
   6.200   0.8403   0.00862   0.00253  -0.0129  0.0500  0.0500  -1.9482   0.0000   0.0000   0.0000   0.2563
   6.300   0.8516   0.00866   0.00257  -0.0130  0.0500  0.0500  -1.9764   0.0000   0.0000   0.0000   0.2560
   6.400   0.8628   0.00869   0.00260  -0.0130  0.0500  0.0500  -2.0047   0.0000   0.0000   0.0000   0.2558
   6.500   0.8741   0.00872   0.00263  -0.0130  0.0500  0.0500  -2.0331   0.0000   0.0000   0.0000   0.2555
   6.600   0.8853   0.00875   0.00267  -0.0131  0.0500  0.0500  -2.0616   0.0000   0.0000   0.0000   0.2552
   6.700   0.8965   0.00878   0.00271  -0.0131  0.0500  0.0500  -2.0902   0.0000   0.0000   0.0000   0.2550
   6.800   0.9077   0.00881   0.00274  -0.0131  0.0500  0.0500  -2.1190   0.0000   0.0000   0.0000   0.2547
   6.900   0.9189   0.00884   0.00278  -0.0132  0.0500  0.0500  -2.1478   0.0000   0.0000   0.0000   0.2545
   7.000   0.9301   0.00888   0.00281  -0.0132  0.0500  0.0500  -2.1768   0.0000   0.0000   0.0000   0.2542
   7.100   0.9413   0.00891   0.00285  -0.0132  0.0500  0.0500  -2.2058   0.0000   0.0000   0.0000   0.2540
   7.200   0.9524   0.00894   0.00289  -0.0133  0.0500  0.0500  -2.2350   0.0000   0.0000   0.0000   0.2537
   7.300   0.9636   0.00898   0.00293  -0.0133  0.0500  0.0500  -2.2643   0.0000   0.0000   0.0000   0.2535
   7.400   0.9747   0.00901   0.00297  -0.0133  0.0500  0.0500  -2.2937   0.0000   0.0000   0.0000   0.2532
   7.500   0.9859   0.00905   0.00301  -0.0134  0.0500  0.0500  -2.3231   0.0000   0.0000   0.0000   0.2530
   7.600   0.9970   0.00908   0.00305  -0.0134  0.0500  0.0500  -2.3527   0.0000   0.0000   0.0000   0.2527
   7.700   1.0081   0.00912   0.00309  -0.0134  0.0500  0.0500  -2.3824   0.0000   0.0000   0.0000   0.2525
   7.800   1.0192   0.00916   0.00313  -0.0134  0.0500  0.0500  -2.4122   0.0000   0.0000   0.0000   0.2523
   7.900   1.0303   0.00919   0.00317  -0.0135  0.0500  0.0500  -2.4421   0.0000   0.0000   0.0000   0.2520
   8.000   1.0414   0.00923   0.00321  -0.0135  0.0500  0.0500  -2.4721   0.0000   0.0000   0.0000   0.2518
   8.100   1.0524   0.00927   0.00325  -0.0135  0.0500  0.0500  -2.5022   0.0000   0.0000   0.0000   0.2515
   8.200   1.0635   0.00931   0.00330  -0.0135  0.0500  0.0500  -2.5336   0.0000   0.0000   0.0000   0.2513
   8.300   1.0745   0.00934   0.00334  -0.0136  0.0500  0.0500  -2.5670   0.0000   0.0000   0.0000   0.2511
   8.400   1.0856   0.00938   0.00339  -0.0136  0.0500  0.0500  -2.6020   0.0000   0.0000   0.0000   0.2508
   8.500   1.0966   0.00942   0.00343  -0.0136  0.0500  0.0500  -2.6376   0.0000   0.0000   0.0000   0.2506
   8.600   1.1076   0.00946   0.00348  -0.0136  0.0500  0.0500  -2.6748   0.0000   0.0000   0.0000   0.2503
   8.700   1.1186   0.00950   0.00352  -0.0136  0.0500  0.0500  -2.7134   0.0000   0.0000   0.0000   0.2501
   8.800   1.1296   0.00954   0.00357  -0.0136  0.0500  0.0500  -2.7534   0.0000   0.0000   0.0000   0.2498
   8.900   1.1405   0.00959   0.00362  -0.0136  0.0500  0.0500  -2.7953   0.0000   0.0000   0.0000   0.2496
   9.000   1.1515   0.00963   0.00366  -0.0137  0.0500  0.0500  -2.8397   0.0000   0.0000   0.0000   0.2494
   9.100   1.1624   0.00967   0.00371  -0.0137  0.0500  0.0500  -2.8858   0.0000   0.0000   0.0000   0.2491
   9.200   1.1734   0.00971   0.00376  -0.0137  0.0500  0.0500  -2.9336   0.0000   0.0000   0.0000   0.2489
   9.300   1.1843   0.00976   0.00381  -0.0137  0.0500  0.0500  -2.9835   0.0000   0.0000   0.0000   0.2486
   9.400   1.1952   0.00980   0.00386  -0.0137  0.0500  0.0500  -3.0348   0.0000   0.0000   0.0000   0.2484
   9.500   1.2060   0.00984   0.00391  -0.0137  0.0500  0.0500  -3.0872   0.0000   0.0000   0.0000   0.2482
   9.600   1.2169   0.00989   0.00396  -0.0137  0.0500  0.0500  -3.1425   0.0000   0.0000   0.0000   0.2479
   9.700   1.2278   0.00993   0.00401  -0.0137  0.0500  0.0500  -3.1981   0.0000   0.0000   0.0000   0.2477
   9.800   1.2386   0.00998   0.00407  -0.0137  0.0500  0.0500  -3.2540   0.0000   0.0000   0.0000   0.2474
   9.900   1.2494   0.01003   0.00412  -0.0137  0.0500  0.0500  -3.3126   0.0000   0.0000   0.0000   0.2472
  10.000   1.2602   0.01007   0.00417  -0.0137  0.0500  0.0500  -3.3729   0.0000   0.0000   0.0000   0.2469
  10.100   1.2710   0.01012   0.00423  -0.0137  0.0500  0.0500  -3.4335   0.0000   0.0000   0.0000   0.2467
  10.200   1.2818   0.01017   0.00428  -0.0137  0.0500  0.0500  -3.4946   0.0000   0.0000   0.0000   0.2464
  10.300   1.2925   0.01022   0.00434  -0.0137  0.0500  0.0500  -3.5560   0.0000   0.0000   0.0000   0.2462
  10.400   1.3033   0.01027   0.00439  -0.0137  0.0500  0.0500  -3.6206   0.0000   0.0000   0.0000   0.2459
  10.500   1.3140   0.01031   0.00445  -0.0137  0.0500  0.0500  -3.6869   0.0000   0.0000   0.0000   0.2457
  10.600   1.3247   0.01036   0.00451  -0.0137  0.0500  0.0500  -3.7536   0.0000   0.0000   0.0000   0.2454
  10.700   1.3354   0.01041   0.00456  -0.0136  0.0500  0.0500  -3.8207   0.0000   0.0000   0.0000   0.2452
  10.800   1.3460   0.01047   0.00462  -0.0136  0.0500  0.0500  -3.8882   0.0000   0.0000   0.0000   0.2449
  10.900   1.3567   0.01052   0.00468  -0.0136  0.0500  0.0500  -3.9561   0.0000   0.0000   0.0000   0.2447
  11.000   1.3673   0.01057   0.00474  -0.0136  0.0500  0.0500  -4.0244   0.0000   0.0000   0.0000   0.2444
  11.100   1.3779   0.01062   0.00480  -0.0136  0.0500  0.0500  -4.0950   0.0000   0.0000   0.0000   0.2442
  11.200   1.3885   0.01068   0.00486  -0.0135  0.0500  0.0500  -4.1687   0.0000   0.0000   0.0000   0.2439
  11.300   1.3989   0.01074   0.00493  -0.0135  0.0494  0.0500  -4.2424   0.0000   0.0000   0.0000   0.2436
  11.400   1.4091   0.01083   0.00502  -0.0134  0.0484  0.0500  -4.3155   0.0000   0.0000   0.0000   0.2433
  11.500   1.4187   0.01096   0.00514  -0.0132  0.0465  0.0500  -4.3871   0.0000   0.0000   0.0000   0.2430
  11.600   1.4282   0.01110   0.00527  -0.0130  0.0438  0.0500  -4.4582   0.0000   0.0000   0.0000   0.2426
  11.700   1.4381   0.01120   0.00537  -0.0129  0.0426  0.0500  -4.5319   0.0000   0.0000   0.0000   0.2423
  11.800   1.4473   0.01136   0.00551  -0.0127  0.0403  0.0500  -4.6031   0.0000   0.0000   0.0000   0.2419
  11.900   1.4569   0.01149   0.00563  -0.0125  0.0382  0.0500  -4.6762   0.0000   0.0000   0.0000   0.2416
  12.000   1.4666   0.01160   0.00574  -0.0124  0.0371  0.0500  -4.7506   0.0000   0.0000   0.0000   0.2413
  12.100   1.4759   0.01175   0.00588  -0.0121  0.0354  0.0500  -4.8234   0.0000   0.0000   0.0000   0.2409
  12.200   1.4853   0.01188   0.00601  -0.0119  0.0335  0.0500  -4.8982   0.0000   0.0000   0.0000   0.2405
  12.300   1.4951   0.01198   0.00611  -0.0118  0.0329  0.0500  -4.9795   0.0000   0.0000   0.0000   0.2402
  12.400   1.5046   0.01210   0.00623  -0.0116  0.0318  0.0500  -5.0596   0.0000   0.0000   0.0000   0.2399
  12.500   1.5136   0.01225   0.00637  -0.0114  0.0303  0.0500  -5.1385   0.0000   0.0000   0.0000   0.2395
  12.600   1.5230   0.01238   0.00650  -0.0112  0.0288  0.0500  -5.2191   0.0000   0.0000   0.0000   0.2391
  12.700   1.5327   0.01248   0.00660  -0.0110  0.0283  0.0500  -5.3017   0.0000   0.0000   0.0000   0.2388
  12.800   1.5420   0.01261   0.00672  -0.0108  0.0274  0.0500  -5.3835   0.0000   0.0000   0.0000   0.2385
  12.900   1.5509   0.01276   0.00687  -0.0106  0.0263  0.0500  -5.4639   0.0000   0.0000   0.0000   0.2381
  13.000   1.5599   0.01291   0.00702  -0.0103  0.0249  0.0500  -5.5448   0.0000   0.0000   0.0000   0.2377
  13.100   1.5693   0.01302   0.00713  -0.0101  0.0243  0.0500  -5.6284   0.0000   0.0000   0.0000   0.2374
  13.200   1.5785   0.01314   0.00725  -0.0099  0.0237  0.0500  -5.7117   0.0000   0.0000   0.0000   0.2370
  13.300   1.5873   0.01329   0.00740  -0.0097  0.0227  0.0500  -5.7933   0.0000   0.0000   0.0000   0.2366
  13.400   1.5957   0.01346   0.00757  -0.0093  0.0215  0.0500  -5.8741   0.0000   0.0000   0.0000   0.2362
  13.500   1.6047   0.01360   0.00770  -0.0091  0.0205  0.0500  -5.9575   0.0000   0.0000   0.0000   0.2358
  13.600   1.6138   0.01371   0.00782  -0.0089  0.0202  0.0500  -6.0425   0.0000   0.0000   0.0000   0.2355
  13.700   1.6227   0.01384   0.00796  -0.0086  0.0197  0.0500  -6.1268   0.0000   0.0000   0.0000   0.2351
  13.800   1.6313   0.01399   0.00811  -0.0083  0.0191  0.0500  -6.2102   0.0000   0.0000   0.0000   0.2347
  13.900   1.6396   0.01415   0.00827  -0.0080  0.0184  0.0500  -6.2928   0.0000   0.0000   0.0000   0.2343
  14.000   1.6480   0.01431   0.00843  -0.0077  0.0176  0.0500  -6.3788   0.0000   0.0000   0.0000   0.2339
  14.100   1.6566   0.01444   0.00856  -0.0074  0.0169  0.0500  -6.4693   0.0000   0.0000   0.0000   0.2335
  14.200   1.6654   0.01456   0.00869  -0.0071  0.0167  0.0500  -6.5611   0.0000   0.0000   0.0000   0.2331
  14.300   1.6740   0.01469   0.00883  -0.0068  0.0165  0.0500  -6.6525   0.0000   0.0000   0.0000   0.2327
  14.400   1.6823   0.01484   0.00897  -0.0065  0.0161  0.0500  -6.7431   0.0000   0.0000   0.0000   0.2323
  14.500   1.6903   0.01499   0.00913  -0.0061  0.0157  0.0500  -6.8327   0.0000   0.0000   0.0000   0.2319
  14.600   1.6980   0.01517   0.00931  -0.0057  0.0152  0.0500  -6.9213   0.0000   0.0000   0.0000   0.2314
  14.700   1.7056   0.01534   0.00948  -0.0053  0.0147  0.0500  -7.0097   0.0000   0.0000   0.0000   0.2309
  14.800   1.7133   0.01550   0.00965  -0.0049  0.0141  0.0500  -7.0991   0.0000   0.0000   0.0000   0.2305
  14.900   1.7212   0.01565   0.00980  -0.0045  0.0137  0.0500  -7.1899   0.0000   0.0000   0.0000   0.2301
  15.000   1.7292   0.01579   0.00995  -0.0041  0.0136  0.0500  -7.2819   0.0000   0.0000   0.0000   0.2296


