xflr5 v6.61

 Calculated polar for: NACA 0012

 1 1 Reynolds number fixed          Mach number fixed         

 xtrf =   0.050 (top)        0.050 (bottom)
 Mach =   0.000     Re =     6.354 e 6     Ncrit =   9.000

  alpha     CL        CD       CDp       Cm    Top Xtr Bot Xtr   Cpmin    Chinge    XCp    
 ------- -------- --------- --------- -------- ------- ------- -------- --------- ---------
  -5.000  -0.5720   0.00835   0.00190   0.0016  0.0500  0.0500  -1.9741   0.0000   0.0000   0.0000   0.2467
  -4.900  -0.5606   0.00833   0.00187   0.0015  0.0500  0.0500  -1.9209   0.0000   0.0000   0.0000   0.2467
  -4.800  -0.5493   0.00831   0.00185   0.0015  0.0500  0.0500  -1.8682   0.0000   0.0000   0.0000   0.2468
  -4.700  -0.5379   0.00829   0.00182   0.0015  0.0500  0.0500  -1.8158   0.0000   0.0000   0.0000   0.2469
  -4.600  -0.5265   0.00827   0.00180   0.0015  0.0500  0.0500  -1.7640   0.0000   0.0000   0.0000   0.2470
  -4.500  -0.5152   0.00825   0.00177   0.0015  0.0500  0.0500  -1.7128   0.0000   0.0000   0.0000   0.2471
  -4.400  -0.5038   0.00823   0.00175   0.0014  0.0500  0.0500  -1.6652   0.0000   0.0000   0.0000   0.2471
  -4.300  -0.4924   0.00821   0.00172   0.0014  0.0500  0.0500  -1.6180   0.0000   0.0000   0.0000   0.2472
  -4.200  -0.4810   0.00819   0.00170   0.0014  0.0500  0.0500  -1.5712   0.0000   0.0000   0.0000   0.2473
  -4.100  -0.4696   0.00818   0.00168   0.0014  0.0500  0.0500  -1.5248   0.0000   0.0000   0.0000   0.2474
  -4.000  -0.4582   0.00816   0.00166   0.0013  0.0500  0.0500  -1.4787   0.0000   0.0000   0.0000   0.2474
  -3.900  -0.4468   0.00815   0.00163   0.0013  0.0500  0.0500  -1.4348   0.0000   0.0000   0.0000   0.2475
  -3.800  -0.4354   0.00813   0.00161   0.0013  0.0500  0.0500  -1.3925   0.0000   0.0000   0.0000   0.2476
  -3.700  -0.4240   0.00811   0.00159   0.0013  0.0500  0.0500  -1.3506   0.0000   0.0000   0.0000   0.2476
  -3.600  -0.4126   0.00810   0.00157   0.0012  0.0500  0.0500  -1.3090   0.0000   0.0000   0.0000   0.2477
  -3.500  -0.4012   0.00809   0.00156   0.0012  0.0500  0.0500  -1.2678   0.0000   0.0000   0.0000   0.2478
  -3.400  -0.3898   0.00807   0.00154   0.0012  0.0500  0.0500  -1.2274   0.0000   0.0000   0.0000   0.2478
  -3.300  -0.3783   0.00806   0.00152   0.0011  0.0500  0.0500  -1.1895   0.0000   0.0000   0.0000   0.2479
  -3.200  -0.3669   0.00805   0.00150   0.0011  0.0500  0.0500  -1.1520   0.0000   0.0000   0.0000   0.2479
  -3.100  -0.3555   0.00803   0.00149   0.0011  0.0500  0.0500  -1.1148   0.0000   0.0000   0.0000   0.2480
  -3.000  -0.3441   0.00802   0.00147   0.0010  0.0500  0.0500  -1.0797   0.0000   0.0000   0.0000   0.2480
  -2.900  -0.3326   0.00801   0.00145   0.0010  0.0500  0.0500  -1.0455   0.0000   0.0000   0.0000   0.2481
  -2.800  -0.3212   0.00800   0.00144   0.0010  0.0500  0.0500  -1.0116   0.0000   0.0000   0.0000   0.2481
  -2.700  -0.3097   0.00799   0.00142   0.0010  0.0500  0.0500  -0.9783   0.0000   0.0000   0.0000   0.2482
  -2.600  -0.2983   0.00798   0.00141   0.0009  0.0500  0.0500  -0.9471   0.0000   0.0000   0.0000   0.2482
  -2.500  -0.2868   0.00797   0.00140   0.0009  0.0500  0.0500  -0.9162   0.0000   0.0000   0.0000   0.2483
  -2.400  -0.2754   0.00796   0.00138   0.0009  0.0500  0.0500  -0.8859   0.0000   0.0000   0.0000   0.2483
  -2.300  -0.2639   0.00795   0.00137   0.0008  0.0500  0.0500  -0.8575   0.0000   0.0000   0.0000   0.2484
  -2.200  -0.2525   0.00794   0.00136   0.0008  0.0500  0.0500  -0.8293   0.0000   0.0000   0.0000   0.2484
  -2.100  -0.2410   0.00793   0.00135   0.0008  0.0500  0.0500  -0.8021   0.0000   0.0000   0.0000   0.2484
  -2.000  -0.2295   0.00792   0.00134   0.0007  0.0500  0.0500  -0.7762   0.0000   0.0000   0.0000   0.2485
  -1.900  -0.2181   0.00791   0.00133   0.0007  0.0500  0.0500  -0.7504   0.0000   0.0000   0.0000   0.2485
  -1.800  -0.2066   0.00791   0.00132   0.0007  0.0500  0.0500  -0.7267   0.0000   0.0000   0.0000   0.2485
  -1.700  -0.1951   0.00790   0.00131   0.0006  0.0500  0.0500  -0.7046   0.0000   0.0000   0.0000   0.2486
  -1.600  -0.1837   0.00789   0.00130   0.0006  0.0500  0.0500  -0.6827   0.0000   0.0000   0.0000   0.2486
  -1.500  -0.1722   0.00789   0.00129   0.0005  0.0500  0.0500  -0.6609   0.0000   0.0000   0.0000   0.2486
  -1.400  -0.1607   0.00788   0.00128   0.0005  0.0500  0.0500  -0.6393   0.0000   0.0000   0.0000   0.2487
  -1.300  -0.1493   0.00788   0.00128   0.0005  0.0500  0.0500  -0.6178   0.0000   0.0000   0.0000   0.2487
  -1.200  -0.1378   0.00787   0.00127   0.0004  0.0500  0.0500  -0.5964   0.0000   0.0000   0.0000   0.2487
  -1.100  -0.1263   0.00787   0.00126   0.0004  0.0500  0.0500  -0.5751   0.0000   0.0000   0.0000   0.2487
  -1.000  -0.1148   0.00786   0.00126   0.0004  0.0500  0.0500  -0.5553   0.0000   0.0000   0.0000   0.2487
  -0.900  -0.1033   0.00786   0.00125   0.0003  0.0500  0.0500  -0.5359   0.0000   0.0000   0.0000   0.2488
  -0.800  -0.0919   0.00786   0.00125   0.0003  0.0500  0.0500  -0.5203   0.0000   0.0000   0.0000   0.2488
  -0.700  -0.0804   0.00785   0.00125   0.0003  0.0500  0.0500  -0.5051   0.0000   0.0000   0.0000   0.2488
  -0.600  -0.0689   0.00785   0.00124   0.0002  0.0500  0.0500  -0.4899   0.0000   0.0000   0.0000   0.2488
  -0.500  -0.0574   0.00785   0.00124   0.0002  0.0500  0.0500  -0.4759   0.0000   0.0000   0.0000   0.2488
  -0.400  -0.0459   0.00785   0.00124   0.0001  0.0500  0.0500  -0.4619   0.0000   0.0000   0.0000   0.2488
  -0.300  -0.0345   0.00785   0.00123   0.0001  0.0500  0.0500  -0.4479   0.0000   0.0000   0.0000   0.2488
  -0.200  -0.0230   0.00784   0.00123   0.0001  0.0500  0.0500  -0.4349   0.0000   0.0000   0.0000   0.2488
  -0.100  -0.0115   0.00784   0.00123   0.0000  0.0500  0.0500  -0.4220   0.0000   0.0000   0.0000   0.2488
   0.000  -0.0000   0.00784   0.00123   0.0000  0.0500  0.0500  -0.4098   0.0000   0.0000   0.0000   0.9086
   0.100   0.0115   0.00784   0.00123  -0.0000  0.0500  0.0500  -0.4220   0.0000   0.0000   0.0000   0.2488
   0.200   0.0230   0.00784   0.00123  -0.0001  0.0500  0.0500  -0.4349   0.0000   0.0000   0.0000   0.2488
   0.300   0.0345   0.00785   0.00123  -0.0001  0.0500  0.0500  -0.4479   0.0000   0.0000   0.0000   0.2488
   0.400   0.0459   0.00785   0.00124  -0.0001  0.0500  0.0500  -0.4619   0.0000   0.0000   0.0000   0.2488
   0.500   0.0574   0.00785   0.00124  -0.0002  0.0500  0.0500  -0.4759   0.0000   0.0000   0.0000   0.2488
   0.600   0.0689   0.00785   0.00124  -0.0002  0.0500  0.0500  -0.4899   0.0000   0.0000   0.0000   0.2488
   0.700   0.0804   0.00785   0.00125  -0.0003  0.0500  0.0500  -0.5051   0.0000   0.0000   0.0000   0.2488
   0.800   0.0919   0.00786   0.00125  -0.0003  0.0500  0.0500  -0.5203   0.0000   0.0000   0.0000   0.2488
   0.900   0.1033   0.00786   0.00125  -0.0003  0.0500  0.0500  -0.5359   0.0000   0.0000   0.0000   0.2488
   1.000   0.1148   0.00786   0.00126  -0.0004  0.0500  0.0500  -0.5553   0.0000   0.0000   0.0000   0.2487
   1.100   0.1263   0.00787   0.00126  -0.0004  0.0500  0.0500  -0.5751   0.0000   0.0000   0.0000   0.2487
   1.200   0.1378   0.00787   0.00127  -0.0004  0.0500  0.0500  -0.5963   0.0000   0.0000   0.0000   0.2487
   1.300   0.1493   0.00788   0.00128  -0.0005  0.0500  0.0500  -0.6177   0.0000   0.0000   0.0000   0.2487
   1.400   0.1607   0.00788   0.00128  -0.0005  0.0500  0.0500  -0.6392   0.0000   0.0000   0.0000   0.2487
   1.500   0.1722   0.00789   0.00129  -0.0005  0.0500  0.0500  -0.6609   0.0000   0.0000   0.0000   0.2486
   1.600   0.1837   0.00789   0.00130  -0.0006  0.0500  0.0500  -0.6826   0.0000   0.0000   0.0000   0.2486
   1.700   0.1951   0.00790   0.00131  -0.0006  0.0500  0.0500  -0.7046   0.0000   0.0000   0.0000   0.2486
   1.800   0.2066   0.00791   0.00132  -0.0007  0.0500  0.0500  -0.7266   0.0000   0.0000   0.0000   0.2486
   1.900   0.2181   0.00791   0.00133  -0.0007  0.0500  0.0500  -0.7503   0.0000   0.0000   0.0000   0.2485
   2.000   0.2295   0.00792   0.00134  -0.0007  0.0500  0.0500  -0.7760   0.0000   0.0000   0.0000   0.2485
   2.100   0.2410   0.00793   0.00135  -0.0008  0.0500  0.0500  -0.8020   0.0000   0.0000   0.0000   0.2484
   2.200   0.2525   0.00794   0.00136  -0.0008  0.0500  0.0500  -0.8293   0.0000   0.0000   0.0000   0.2484
   2.300   0.2639   0.00795   0.00137  -0.0008  0.0500  0.0500  -0.8575   0.0000   0.0000   0.0000   0.2484
   2.400   0.2754   0.00796   0.00138  -0.0009  0.0500  0.0500  -0.8859   0.0000   0.0000   0.0000   0.2483
   2.500   0.2868   0.00797   0.00140  -0.0009  0.0500  0.0500  -0.9162   0.0000   0.0000   0.0000   0.2483
   2.600   0.2983   0.00798   0.00141  -0.0009  0.0500  0.0500  -0.9471   0.0000   0.0000   0.0000   0.2482
   2.700   0.3097   0.00799   0.00142  -0.0010  0.0500  0.0500  -0.9783   0.0000   0.0000   0.0000   0.2482
   2.800   0.3212   0.00800   0.00144  -0.0010  0.0500  0.0500  -1.0116   0.0000   0.0000   0.0000   0.2482
   2.900   0.3326   0.00801   0.00145  -0.0010  0.0500  0.0500  -1.0455   0.0000   0.0000   0.0000   0.2481
   3.000   0.3441   0.00802   0.00147  -0.0010  0.0500  0.0500  -1.0797   0.0000   0.0000   0.0000   0.2481
   3.100   0.3555   0.00803   0.00149  -0.0011  0.0500  0.0500  -1.1148   0.0000   0.0000   0.0000   0.2480
   3.200   0.3669   0.00805   0.00150  -0.0011  0.0500  0.0500  -1.1520   0.0000   0.0000   0.0000   0.2479
   3.300   0.3784   0.00806   0.00152  -0.0011  0.0500  0.0500  -1.1895   0.0000   0.0000   0.0000   0.2479
   3.400   0.3898   0.00807   0.00154  -0.0012  0.0500  0.0500  -1.2274   0.0000   0.0000   0.0000   0.2478
   3.500   0.4012   0.00809   0.00156  -0.0012  0.0500  0.0500  -1.2678   0.0000   0.0000   0.0000   0.2478
   3.600   0.4126   0.00810   0.00157  -0.0012  0.0500  0.0500  -1.3090   0.0000   0.0000   0.0000   0.2477
   3.700   0.4240   0.00811   0.00159  -0.0013  0.0500  0.0500  -1.3506   0.0000   0.0000   0.0000   0.2476
   3.800   0.4354   0.00813   0.00161  -0.0013  0.0500  0.0500  -1.3925   0.0000   0.0000   0.0000   0.2476
   3.900   0.4468   0.00815   0.00163  -0.0013  0.0500  0.0500  -1.4348   0.0000   0.0000   0.0000   0.2475
   4.000   0.4583   0.00816   0.00166  -0.0013  0.0500  0.0500  -1.4787   0.0000   0.0000   0.0000   0.2474
   4.100   0.4696   0.00818   0.00168  -0.0014  0.0500  0.0500  -1.5248   0.0000   0.0000   0.0000   0.2474
   4.200   0.4810   0.00819   0.00170  -0.0014  0.0500  0.0500  -1.5712   0.0000   0.0000   0.0000   0.2473
   4.300   0.4924   0.00821   0.00172  -0.0014  0.0500  0.0500  -1.6180   0.0000   0.0000   0.0000   0.2472
   4.400   0.5038   0.00823   0.00175  -0.0014  0.0500  0.0500  -1.6653   0.0000   0.0000   0.0000   0.2472
   4.500   0.5152   0.00825   0.00177  -0.0015  0.0500  0.0500  -1.7129   0.0000   0.0000   0.0000   0.2471
   4.600   0.5266   0.00827   0.00180  -0.0015  0.0500  0.0500  -1.7640   0.0000   0.0000   0.0000   0.2470
   4.700   0.5379   0.00829   0.00182  -0.0015  0.0500  0.0500  -1.8159   0.0000   0.0000   0.0000   0.2469
   4.800   0.5493   0.00831   0.00185  -0.0015  0.0500  0.0500  -1.8682   0.0000   0.0000   0.0000   0.2468
   4.900   0.5606   0.00833   0.00187  -0.0015  0.0500  0.0500  -1.9210   0.0000   0.0000   0.0000   0.2467
   5.000   0.5720   0.00835   0.00190  -0.0016  0.0500  0.0500  -1.9742   0.0000   0.0000   0.0000   0.2467
   5.100   0.5833   0.00837   0.00193  -0.0016  0.0500  0.0500  -2.0278   0.0000   0.0000   0.0000   0.2466
   5.200   0.5947   0.00839   0.00196  -0.0016  0.0500  0.0500  -2.0819   0.0000   0.0000   0.0000   0.2465
   5.300   0.6060   0.00841   0.00199  -0.0016  0.0500  0.0500  -2.1399   0.0000   0.0000   0.0000   0.2464
   5.400   0.6173   0.00843   0.00202  -0.0016  0.0500  0.0500  -2.1988   0.0000   0.0000   0.0000   0.2463
   5.500   0.6287   0.00846   0.00205  -0.0017  0.0500  0.0500  -2.2582   0.0000   0.0000   0.0000   0.2462
   5.600   0.6398   0.00850   0.00209  -0.0016  0.0487  0.0500  -2.3175   0.0000   0.0000   0.0000   0.2461
   5.700   0.6509   0.00855   0.00214  -0.0016  0.0460  0.0500  -2.3772   0.0000   0.0000   0.0000   0.2459
   5.800   0.6622   0.00859   0.00217  -0.0016  0.0451  0.0500  -2.4378   0.0000   0.0000   0.0000   0.2458
   5.900   0.6733   0.00863   0.00222  -0.0016  0.0438  0.0500  -2.4988   0.0000   0.0000   0.0000   0.2457
   6.000   0.6843   0.00869   0.00227  -0.0016  0.0421  0.0500  -2.5598   0.0000   0.0000   0.0000   0.2455
   6.100   0.6954   0.00875   0.00232  -0.0016  0.0400  0.0500  -2.6213   0.0000   0.0000   0.0000   0.2454
   6.200   0.7066   0.00879   0.00236  -0.0016  0.0390  0.0500  -2.6867   0.0000   0.0000   0.0000   0.2452
   6.300   0.7177   0.00883   0.00241  -0.0016  0.0382  0.0500  -2.7541   0.0000   0.0000   0.0000   0.2451
   6.400   0.7288   0.00888   0.00246  -0.0015  0.0369  0.0500  -2.8218   0.0000   0.0000   0.0000   0.2450
   6.500   0.7397   0.00895   0.00251  -0.0015  0.0352  0.0500  -2.8895   0.0000   0.0000   0.0000   0.2448
   6.600   0.7507   0.00900   0.00257  -0.0015  0.0334  0.0500  -2.9580   0.0000   0.0000   0.0000   0.2446
   6.700   0.7619   0.00904   0.00261  -0.0015  0.0330  0.0500  -3.0277   0.0000   0.0000   0.0000   0.2445
   6.800   0.7729   0.00909   0.00266  -0.0015  0.0323  0.0500  -3.0978   0.0000   0.0000   0.0000   0.2444
   6.900   0.7840   0.00914   0.00272  -0.0014  0.0314  0.0500  -3.1682   0.0000   0.0000   0.0000   0.2442
   7.000   0.7949   0.00921   0.00278  -0.0014  0.0302  0.0500  -3.2388   0.0000   0.0000   0.0000   0.2441
   7.100   0.8058   0.00927   0.00284  -0.0014  0.0289  0.0500  -3.3099   0.0000   0.0000   0.0000   0.2439
   7.200   0.8169   0.00932   0.00289  -0.0013  0.0282  0.0500  -3.3821   0.0000   0.0000   0.0000   0.2438
   7.300   0.8279   0.00936   0.00294  -0.0013  0.0279  0.0500  -3.4551   0.0000   0.0000   0.0000   0.2436
   7.400   0.8390   0.00941   0.00299  -0.0013  0.0273  0.0500  -3.5284   0.0000   0.0000   0.0000   0.2435
   7.500   0.8499   0.00947   0.00305  -0.0013  0.0266  0.0500  -3.6066   0.0000   0.0000   0.0000   0.2433
   7.600   0.8607   0.00954   0.00312  -0.0012  0.0257  0.0500  -3.6852   0.0000   0.0000   0.0000   0.2431
   7.700   0.8716   0.00961   0.00319  -0.0012  0.0245  0.0500  -3.7643   0.0000   0.0000   0.0000   0.2430
   7.800   0.8825   0.00967   0.00325  -0.0011  0.0239  0.0500  -3.8446   0.0000   0.0000   0.0000   0.2428
   7.900   0.8935   0.00972   0.00330  -0.0011  0.0236  0.0500  -3.9260   0.0000   0.0000   0.0000   0.2426
   8.000   0.9044   0.00977   0.00336  -0.0011  0.0232  0.0500  -4.0077   0.0000   0.0000   0.0000   0.2425
   8.100   0.9153   0.00983   0.00343  -0.0010  0.0227  0.0500  -4.0899   0.0000   0.0000   0.0000   0.2423
   8.200   0.9261   0.00990   0.00350  -0.0010  0.0221  0.0500  -4.1723   0.0000   0.0000   0.0000   0.2422
   8.300   0.9369   0.00998   0.00357  -0.0009  0.0215  0.0500  -4.2550   0.0000   0.0000   0.0000   0.2420
   8.400   0.9476   0.01005   0.00365  -0.0009  0.0207  0.0500  -4.3381   0.0000   0.0000   0.0000   0.2418
   8.500   0.9584   0.01012   0.00372  -0.0008  0.0201  0.0500  -4.4221   0.0000   0.0000   0.0000   0.2416
   8.600   0.9693   0.01017   0.00378  -0.0008  0.0200  0.0500  -4.5076   0.0000   0.0000   0.0000   0.2414
   8.700   0.9802   0.01023   0.00384  -0.0007  0.0198  0.0500  -4.5936   0.0000   0.0000   0.0000   0.2413
   8.800   0.9910   0.01029   0.00391  -0.0007  0.0195  0.0500  -4.6800   0.0000   0.0000   0.0000   0.2411
   8.900   1.0018   0.01036   0.00398  -0.0006  0.0192  0.0500  -4.7668   0.0000   0.0000   0.0000   0.2409
   9.000   1.0125   0.01043   0.00406  -0.0006  0.0188  0.0500  -4.8539   0.0000   0.0000   0.0000   0.2407
   9.100   1.0231   0.01051   0.00414  -0.0005  0.0183  0.0500  -4.9412   0.0000   0.0000   0.0000   0.2405
   9.200   1.0337   0.01059   0.00423  -0.0004  0.0178  0.0500  -5.0303   0.0000   0.0000   0.0000   0.2403
   9.300   1.0443   0.01068   0.00431  -0.0003  0.0172  0.0500  -5.1236   0.0000   0.0000   0.0000   0.2401
   9.400   1.0549   0.01076   0.00440  -0.0002  0.0167  0.0500  -5.2178   0.0000   0.0000   0.0000   0.2399
   9.500   1.0656   0.01082   0.00447  -0.0002  0.0166  0.0500  -5.3141   0.0000   0.0000   0.0000   0.2398
   9.600   1.0763   0.01088   0.00454  -0.0001  0.0165  0.0500  -5.4109   0.0000   0.0000   0.0000   0.2396
   9.700   1.0870   0.01095   0.00462  -0.0001  0.0163  0.0500  -5.5081   0.0000   0.0000   0.0000   0.2394
   9.800   1.0976   0.01102   0.00469   0.0000  0.0161  0.0500  -5.6057   0.0000   0.0000   0.0000   0.2392
   9.900   1.1082   0.01110   0.00478   0.0001  0.0158  0.0500  -5.7037   0.0000   0.0000   0.0000   0.2390
  10.000   1.1187   0.01119   0.00487   0.0002  0.0156  0.0500  -5.8020   0.0000   0.0000   0.0000   0.2388
  10.100   1.1291   0.01127   0.00496   0.0003  0.0153  0.0500  -5.9006   0.0000   0.0000   0.0000   0.2386
  10.200   1.1395   0.01137   0.00506   0.0004  0.0149  0.0500  -5.9995   0.0000   0.0000   0.0000   0.2383
  10.300   1.1498   0.01147   0.00516   0.0005  0.0145  0.0500  -6.0986   0.0000   0.0000   0.0000   0.2381
  10.400   1.1601   0.01156   0.00526   0.0006  0.0141  0.0500  -6.1979   0.0000   0.0000   0.0000   0.2379
  10.500   1.1705   0.01166   0.00536   0.0007  0.0138  0.0500  -6.2980   0.0000   0.0000   0.0000   0.2377
  10.600   1.1810   0.01173   0.00545   0.0008  0.0137  0.0500  -6.4007   0.0000   0.0000   0.0000   0.2375
  10.700   1.1915   0.01181   0.00553   0.0009  0.0136  0.0500  -6.5040   0.0000   0.0000   0.0000   0.2372
  10.800   1.2019   0.01189   0.00562   0.0010  0.0136  0.0500  -6.6076   0.0000   0.0000   0.0000   0.2370
  10.900   1.2123   0.01197   0.00571   0.0011  0.0135  0.0500  -6.7117   0.0000   0.0000   0.0000   0.2368
  11.000   1.2226   0.01205   0.00580   0.0012  0.0133  0.0500  -6.8162   0.0000   0.0000   0.0000   0.2366
  11.100   1.2329   0.01214   0.00590   0.0013  0.0132  0.0500  -6.9210   0.0000   0.0000   0.0000   0.2364
  11.200   1.2432   0.01223   0.00600   0.0014  0.0130  0.0500  -7.0262   0.0000   0.0000   0.0000   0.2361
  11.300   1.2534   0.01233   0.00610   0.0015  0.0128  0.0500  -7.1317   0.0000   0.0000   0.0000   0.2359
  11.400   1.2635   0.01243   0.00621   0.0017  0.0126  0.0500  -7.2374   0.0000   0.0000   0.0000   0.2357
  11.500   1.2735   0.01254   0.00633   0.0018  0.0124  0.0500  -7.3433   0.0000   0.0000   0.0000   0.2354
  11.600   1.2835   0.01265   0.00644   0.0020  0.0122  0.0500  -7.4493   0.0000   0.0000   0.0000   0.2352
  11.700   1.2934   0.01277   0.00657   0.0021  0.0119  0.0500  -7.5553   0.0000   0.0000   0.0000   0.2349
  11.800   1.3033   0.01289   0.00670   0.0023  0.0116  0.0500  -7.6612   0.0000   0.0000   0.0000   0.2346
  11.900   1.3131   0.01302   0.00683   0.0025  0.0113  0.0500  -7.7715   0.0000   0.0000   0.0000   0.2343
  12.000   1.3230   0.01313   0.00695   0.0026  0.0111  0.0500  -7.8853   0.0000   0.0000   0.0000   0.2341
  12.100   1.3331   0.01322   0.00706   0.0028  0.0111  0.0500  -8.0019   0.0000   0.0000   0.0000   0.2338
  12.200   1.3431   0.01332   0.00716   0.0029  0.0111  0.0500  -8.1189   0.0000   0.0000   0.0000   0.2336
  12.300   1.3531   0.01341   0.00727   0.0031  0.0110  0.0500  -8.2363   0.0000   0.0000   0.0000   0.2334
  12.400   1.3630   0.01351   0.00737   0.0032  0.0109  0.0500  -8.3540   0.0000   0.0000   0.0000   0.2331
  12.500   1.3729   0.01361   0.00749   0.0034  0.0109  0.0500  -8.4720   0.0000   0.0000   0.0000   0.2328
  12.600   1.3828   0.01372   0.00760   0.0035  0.0108  0.0500  -8.5904   0.0000   0.0000   0.0000   0.2326
  12.700   1.3925   0.01383   0.00772   0.0037  0.0107  0.0500  -8.7090   0.0000   0.0000   0.0000   0.2323
  12.800   1.4022   0.01394   0.00785   0.0039  0.0106  0.0500  -8.8279   0.0000   0.0000   0.0000   0.2320
  12.900   1.4119   0.01406   0.00797   0.0041  0.0105  0.0500  -8.9471   0.0000   0.0000   0.0000   0.2318
  13.000   1.4215   0.01418   0.00810   0.0043  0.0104  0.0500  -9.0665   0.0000   0.0000   0.0000   0.2315
  13.100   1.4309   0.01431   0.00824   0.0045  0.0103  0.0500  -9.1861   0.0000   0.0000   0.0000   0.2312
  13.200   1.4404   0.01444   0.00838   0.0047  0.0102  0.0500  -9.3058   0.0000   0.0000   0.0000   0.2309
  13.300   1.4497   0.01457   0.00852   0.0049  0.0100  0.0500  -9.4255   0.0000   0.0000   0.0000   0.2306
  13.400   1.4589   0.01472   0.00867   0.0052  0.0099  0.0500  -9.5451   0.0000   0.0000   0.0000   0.2303
  13.500   1.4681   0.01486   0.00883   0.0054  0.0097  0.0500  -9.6647   0.0000   0.0000   0.0000   0.2299
  13.600   1.4771   0.01501   0.00899   0.0057  0.0095  0.0500  -9.7841   0.0000   0.0000   0.0000   0.2296
  13.700   1.4861   0.01517   0.00915   0.0060  0.0094  0.0500  -9.9033   0.0000   0.0000   0.0000   0.2293
  13.800   1.4950   0.01533   0.00932   0.0063  0.0092  0.0500  -10.0221   0.0000   0.0000   0.0000   0.2289
  14.500   1.5554   0.01513   0.01068   0.0082  0.0087  1.0000  -10.8603   0.0000   0.0000   0.0000   0.2266
  14.600   1.5643   0.01528   0.01083   0.0085  0.0087  1.0000  -10.9855   0.0000   0.0000   0.0000   0.2263
  14.700   1.5730   0.01543   0.01099   0.0088  0.0087  1.0000  -11.1107   0.0000   0.0000   0.0000   0.2259
  14.800   1.5817   0.01558   0.01115   0.0091  0.0087  1.0000  -11.2360   0.0000   0.0000   0.0000   0.2256
  14.900   1.5903   0.01574   0.01131   0.0094  0.0086  1.0000  -11.3613   0.0000   0.0000   0.0000   0.2252
  15.000   1.5988   0.01590   0.01148   0.0097  0.0086  1.0000  -11.4866   0.0000   0.0000   0.0000   0.2249


