xflr5 v6.61

 Calculated polar for: NACA 23012  12%

 1 1 Reynolds number fixed          Mach number fixed         

 xtrf =   0.050 (top)        0.050 (bottom)
 Mach =   0.000     Re =     8.400 e 6     Ncrit =   9.000

  alpha     CL        CD       CDp       Cm    Top Xtr Bot Xtr   Cpmin    Chinge    XCp    
 ------- -------- --------- --------- -------- ------- ------- -------- --------- ---------
  -5.000  -0.4384   0.00805   0.00182  -0.0077  0.0500  0.0159  -3.0905   0.0000   0.0000   0.0000   0.2268
  -4.900  -0.4271   0.00802   0.00176  -0.0077  0.0500  0.0160  -3.0195   0.0000   0.0000   0.0000   0.2264
  -4.800  -0.4157   0.00800   0.00174  -0.0077  0.0500  0.0160  -2.9459   0.0000   0.0000   0.0000   0.2259
  -4.700  -0.4043   0.00798   0.00171  -0.0077  0.0500  0.0161  -2.8729   0.0000   0.0000   0.0000   0.2254
  -4.600  -0.3929   0.00796   0.00169  -0.0077  0.0500  0.0161  -2.8006   0.0000   0.0000   0.0000   0.2249
  -4.500  -0.3816   0.00793   0.00166  -0.0077  0.0500  0.0162  -2.7289   0.0000   0.0000   0.0000   0.2243
  -4.400  -0.3702   0.00791   0.00164  -0.0077  0.0500  0.0162  -2.6578   0.0000   0.0000   0.0000   0.2237
  -4.300  -0.3588   0.00789   0.00161  -0.0077  0.0500  0.0173  -2.5882   0.0000   0.0000   0.0000   0.2231
  -4.200  -0.3474   0.00787   0.00159  -0.0077  0.0500  0.0189  -2.5190   0.0000   0.0000   0.0000   0.2224
  -4.100  -0.3360   0.00785   0.00157  -0.0077  0.0500  0.0205  -2.4503   0.0000   0.0000   0.0000   0.2216
  -4.000  -0.3247   0.00783   0.00155  -0.0077  0.0500  0.0221  -2.3822   0.0000   0.0000   0.0000   0.2208
  -3.900  -0.3133   0.00779   0.00153  -0.0077  0.0500  0.0238  -2.3149   0.0000   0.0000   0.0000   0.2200
  -3.800  -0.3020   0.00776   0.00150  -0.0077  0.0500  0.0255  -2.2481   0.0000   0.0000   0.0000   0.2191
  -3.700  -0.2908   0.00772   0.00148  -0.0077  0.0500  0.0273  -2.1818   0.0000   0.0000   0.0000   0.2181
  -3.600  -0.2794   0.00769   0.00146  -0.0077  0.0500  0.0286  -2.1158   0.0000   0.0000   0.0000   0.2170
  -3.500  -0.2680   0.00767   0.00144  -0.0077  0.0500  0.0292  -2.0503   0.0000   0.0000   0.0000   0.2158
  -3.400  -0.2566   0.00766   0.00142  -0.0077  0.0500  0.0296  -1.9855   0.0000   0.0000   0.0000   0.2145
  -3.300  -0.2452   0.00765   0.00141  -0.0078  0.0500  0.0298  -1.9213   0.0000   0.0000   0.0000   0.2130
  -3.200  -0.2337   0.00764   0.00139  -0.0078  0.0500  0.0300  -1.8578   0.0000   0.0000   0.0000   0.2113
  -3.100  -0.2222   0.00762   0.00138  -0.0078  0.0500  0.0301  -1.7951   0.0000   0.0000   0.0000   0.2095
  -3.000  -0.2108   0.00761   0.00137  -0.0078  0.0500  0.0303  -1.7329   0.0000   0.0000   0.0000   0.2074
  -2.900  -0.1993   0.00761   0.00135  -0.0078  0.0500  0.0304  -1.6715   0.0000   0.0000   0.0000   0.2051
  -2.800  -0.1878   0.00760   0.00134  -0.0079  0.0500  0.0305  -1.6107   0.0000   0.0000   0.0000   0.2025
  -2.700  -0.1764   0.00759   0.00133  -0.0079  0.0500  0.0306  -1.5506   0.0000   0.0000   0.0000   0.1996
  -2.600  -0.1649   0.00758   0.00132  -0.0079  0.0500  0.0307  -1.4910   0.0000   0.0000   0.0000   0.1963
  -2.500  -0.1534   0.00757   0.00131  -0.0079  0.0500  0.0308  -1.4321   0.0000   0.0000   0.0000   0.1924
  -2.400  -0.1419   0.00757   0.00130  -0.0080  0.0500  0.0309  -1.3739   0.0000   0.0000   0.0000   0.1879
  -2.300  -0.1305   0.00756   0.00129  -0.0080  0.0500  0.0310  -1.3164   0.0000   0.0000   0.0000   0.1827
  -2.200  -0.1190   0.00755   0.00128  -0.0080  0.0500  0.0336  -1.2604   0.0000   0.0000   0.0000   0.1764
  -2.100  -0.1075   0.00754   0.00127  -0.0080  0.0500  0.0364  -1.2047   0.0000   0.0000   0.0000   0.1688
  -2.000  -0.0961   0.00753   0.00126  -0.0080  0.0500  0.0387  -1.1497   0.0000   0.0000   0.0000   0.1594
  -1.900  -0.0846   0.00752   0.00126  -0.0081  0.0500  0.0409  -1.0953   0.0000   0.0000   0.0000   0.1475
  -1.800  -0.0732   0.00750   0.00125  -0.0081  0.0500  0.0430  -1.0417   0.0000   0.0000   0.0000   0.1320
  -1.700  -0.0618   0.00748   0.00124  -0.0081  0.0500  0.0452  -0.9887   0.0000   0.0000   0.0000   0.1107
  -1.600  -0.0504   0.00747   0.00123  -0.0081  0.0500  0.0473  -0.9362   0.0000   0.0000   0.0000   0.0797
  -1.500  -0.0390   0.00746   0.00123  -0.0081  0.0500  0.0486  -0.8842   0.0000   0.0000   0.0000   0.0302
  -1.400  -0.0275   0.00745   0.00122  -0.0082  0.0500  0.0494  -0.8368   0.0000   0.0000   0.0000  -0.0609
  -1.300  -0.0160   0.00746   0.00121  -0.0082  0.0500  0.0496  -0.8043   0.0000   0.0000   0.0000  -0.2835
  -1.200  -0.0045   0.00746   0.00121  -0.0082  0.0500  0.0498  -0.7692   0.0000   0.0000   0.0000  -1.6473
  -1.100   0.0070   0.00746   0.00121  -0.0083  0.0500  0.0500  -0.7345   0.0000   0.0000   0.0000   1.4603
  -1.000   0.0185   0.00746   0.00120  -0.0083  0.0500  0.0500  -0.7002   0.0000   0.0000   0.0000   0.7080
  -0.900   0.0301   0.00746   0.00120  -0.0083  0.0500  0.0500  -0.6662   0.0000   0.0000   0.0000   0.5321
  -0.800   0.0416   0.00747   0.00120  -0.0084  0.0500  0.0500  -0.6325   0.0000   0.0000   0.0000   0.4537
  -0.700   0.0531   0.00747   0.00120  -0.0084  0.0500  0.0500  -0.5991   0.0000   0.0000   0.0000   0.4093
  -0.600   0.0646   0.00748   0.00120  -0.0085  0.0500  0.0500  -0.5988   0.0000   0.0000   0.0000   0.3807
  -0.500   0.0761   0.00748   0.00120  -0.0085  0.0500  0.0500  -0.6121   0.0000   0.0000   0.0000   0.3608
  -0.400   0.0876   0.00749   0.00121  -0.0085  0.0500  0.0500  -0.6254   0.0000   0.0000   0.0000   0.3461
  -0.300   0.0991   0.00749   0.00121  -0.0086  0.0500  0.0500  -0.6387   0.0000   0.0000   0.0000   0.3349
  -0.200   0.1106   0.00750   0.00121  -0.0086  0.0500  0.0500  -0.6521   0.0000   0.0000   0.0000   0.3259
  -0.100   0.1221   0.00750   0.00121  -0.0086  0.0500  0.0500  -0.6656   0.0000   0.0000   0.0000   0.3187
   0.000   0.1336   0.00751   0.00122  -0.0087  0.0500  0.0500  -0.6790   0.0000   0.0000   0.0000   0.3127
   0.100   0.1451   0.00752   0.00122  -0.0087  0.0500  0.0500  -0.6926   0.0000   0.0000   0.0000   0.3076
   0.200   0.1566   0.00752   0.00123  -0.0088  0.0500  0.0500  -0.7061   0.0000   0.0000   0.0000   0.3033
   0.300   0.1681   0.00753   0.00123  -0.0088  0.0500  0.0500  -0.7197   0.0000   0.0000   0.0000   0.2996
   0.400   0.1796   0.00754   0.00124  -0.0089  0.0500  0.0500  -0.7341   0.0000   0.0000   0.0000   0.2963
   0.500   0.1911   0.00755   0.00124  -0.0089  0.0500  0.0500  -0.7506   0.0000   0.0000   0.0000   0.2935
   0.600   0.2026   0.00755   0.00125  -0.0089  0.0500  0.0500  -0.7672   0.0000   0.0000   0.0000   0.2909
   0.700   0.2141   0.00756   0.00126  -0.0090  0.0500  0.0500  -0.7838   0.0000   0.0000   0.0000   0.2887
   0.800   0.2256   0.00757   0.00127  -0.0090  0.0500  0.0500  -0.8005   0.0000   0.0000   0.0000   0.2866
   0.900   0.2371   0.00758   0.00127  -0.0091  0.0500  0.0500  -0.8172   0.0000   0.0000   0.0000   0.2848
   1.000   0.2486   0.00759   0.00128  -0.0091  0.0500  0.0500  -0.8340   0.0000   0.0000   0.0000   0.2831
   1.100   0.2601   0.00760   0.00129  -0.0091  0.0500  0.0500  -0.8509   0.0000   0.0000   0.0000   0.2816
   1.200   0.2716   0.00761   0.00130  -0.0092  0.0500  0.0500  -0.8678   0.0000   0.0000   0.0000   0.2802
   1.300   0.2831   0.00762   0.00131  -0.0092  0.0500  0.0500  -0.8848   0.0000   0.0000   0.0000   0.2789
   1.400   0.2945   0.00763   0.00132  -0.0093  0.0500  0.0500  -0.9019   0.0000   0.0000   0.0000   0.2777
   1.500   0.3060   0.00764   0.00133  -0.0093  0.0500  0.0500  -0.9190   0.0000   0.0000   0.0000   0.2765
   1.600   0.3175   0.00766   0.00134  -0.0094  0.0500  0.0500  -0.9362   0.0000   0.0000   0.0000   0.2755
   1.700   0.3289   0.00767   0.00136  -0.0094  0.0500  0.0500  -0.9534   0.0000   0.0000   0.0000   0.2745
   1.800   0.3404   0.00768   0.00137  -0.0095  0.0500  0.0500  -0.9707   0.0000   0.0000   0.0000   0.2736
   1.900   0.3519   0.00769   0.00138  -0.0095  0.0500  0.0500  -0.9881   0.0000   0.0000   0.0000   0.2728
   2.000   0.3633   0.00771   0.00139  -0.0095  0.0500  0.0500  -1.0056   0.0000   0.0000   0.0000   0.2720
   2.100   0.3748   0.00772   0.00141  -0.0096  0.0500  0.0500  -1.0231   0.0000   0.0000   0.0000   0.2712
   2.200   0.3863   0.00773   0.00142  -0.0096  0.0500  0.0500  -1.0406   0.0000   0.0000   0.0000   0.2705
   2.300   0.3977   0.00775   0.00145  -0.0097  0.0500  0.0500  -1.0582   0.0000   0.0000   0.0000   0.2698
   2.400   0.4091   0.00776   0.00146  -0.0097  0.0500  0.0500  -1.0759   0.0000   0.0000   0.0000   0.2692
   2.500   0.4206   0.00778   0.00148  -0.0098  0.0500  0.0500  -1.0937   0.0000   0.0000   0.0000   0.2686
   2.600   0.4320   0.00779   0.00149  -0.0098  0.0500  0.0500  -1.1115   0.0000   0.0000   0.0000   0.2680
   2.700   0.4435   0.00781   0.00151  -0.0099  0.0500  0.0500  -1.1293   0.0000   0.0000   0.0000   0.2674
   2.800   0.4549   0.00783   0.00152  -0.0099  0.0500  0.0500  -1.1472   0.0000   0.0000   0.0000   0.2669
   2.900   0.4663   0.00784   0.00154  -0.0099  0.0500  0.0500  -1.1652   0.0000   0.0000   0.0000   0.2664
   3.000   0.4777   0.00786   0.00156  -0.0100  0.0500  0.0500  -1.1855   0.0000   0.0000   0.0000   0.2659
   3.100   0.4892   0.00788   0.00158  -0.0100  0.0500  0.0500  -1.2075   0.0000   0.0000   0.0000   0.2654
   3.200   0.5006   0.00789   0.00159  -0.0101  0.0500  0.0500  -1.2297   0.0000   0.0000   0.0000   0.2650
   3.300   0.5120   0.00791   0.00161  -0.0101  0.0500  0.0500  -1.2520   0.0000   0.0000   0.0000   0.2645
   3.400   0.5234   0.00793   0.00163  -0.0102  0.0500  0.0500  -1.2743   0.0000   0.0000   0.0000   0.2641
   3.500   0.5348   0.00795   0.00165  -0.0102  0.0500  0.0500  -1.2968   0.0000   0.0000   0.0000   0.2637
   3.600   0.5462   0.00797   0.00167  -0.0103  0.0500  0.0500  -1.3193   0.0000   0.0000   0.0000   0.2633
   3.700   0.5576   0.00799   0.00169  -0.0103  0.0500  0.0500  -1.3420   0.0000   0.0000   0.0000   0.2629
   3.800   0.5690   0.00800   0.00171  -0.0103  0.0500  0.0500  -1.3647   0.0000   0.0000   0.0000   0.2625
   3.900   0.5804   0.00802   0.00174  -0.0104  0.0500  0.0500  -1.3875   0.0000   0.0000   0.0000   0.2622
   4.000   0.5917   0.00805   0.00176  -0.0104  0.0500  0.0500  -1.4104   0.0000   0.0000   0.0000   0.2618
   4.100   0.6031   0.00807   0.00178  -0.0105  0.0500  0.0500  -1.4334   0.0000   0.0000   0.0000   0.2615
   4.200   0.6145   0.00809   0.00180  -0.0105  0.0500  0.0500  -1.4565   0.0000   0.0000   0.0000   0.2611
   4.300   0.6258   0.00811   0.00183  -0.0106  0.0500  0.0500  -1.4797   0.0000   0.0000   0.0000   0.2608
   4.400   0.6372   0.00813   0.00185  -0.0106  0.0500  0.0500  -1.5029   0.0000   0.0000   0.0000   0.2605
   4.500   0.6485   0.00815   0.00188  -0.0106  0.0500  0.0500  -1.5263   0.0000   0.0000   0.0000   0.2602
   4.600   0.6599   0.00817   0.00190  -0.0107  0.0500  0.0500  -1.5497   0.0000   0.0000   0.0000   0.2598
   4.700   0.6712   0.00820   0.00193  -0.0107  0.0500  0.0500  -1.5777   0.0000   0.0000   0.0000   0.2595
   4.800   0.6826   0.00822   0.00195  -0.0108  0.0500  0.0500  -1.6071   0.0000   0.0000   0.0000   0.2592
   4.900   0.6939   0.00824   0.00198  -0.0108  0.0500  0.0500  -1.6366   0.0000   0.0000   0.0000   0.2590
   5.000   0.7052   0.00827   0.00201  -0.0109  0.0500  0.0500  -1.6663   0.0000   0.0000   0.0000   0.2587
   5.100   0.7165   0.00829   0.00203  -0.0109  0.0500  0.0500  -1.6962   0.0000   0.0000   0.0000   0.2584
   5.200   0.7278   0.00832   0.00206  -0.0109  0.0500  0.0500  -1.7261   0.0000   0.0000   0.0000   0.2581
   5.300   0.7391   0.00834   0.00209  -0.0110  0.0500  0.0500  -1.7563   0.0000   0.0000   0.0000   0.2578
   5.400   0.7504   0.00837   0.00212  -0.0110  0.0500  0.0500  -1.7865   0.0000   0.0000   0.0000   0.2576
   5.500   0.7617   0.00839   0.00215  -0.0111  0.0500  0.0500  -1.8169   0.0000   0.0000   0.0000   0.2573
   5.600   0.7730   0.00842   0.00218  -0.0111  0.0500  0.0500  -1.8475   0.0000   0.0000   0.0000   0.2570
   5.700   0.7842   0.00845   0.00221  -0.0111  0.0500  0.0500  -1.8782   0.0000   0.0000   0.0000   0.2568
   5.800   0.7955   0.00847   0.00227  -0.0112  0.0500  0.0500  -1.9074   0.0000   0.0000   0.0000   0.2565
   5.900   0.8068   0.00850   0.00230  -0.0112  0.0500  0.0500  -1.9378   0.0000   0.0000   0.0000   0.2563
   6.000   0.8181   0.00853   0.00233  -0.0112  0.0500  0.0500  -1.9705   0.0000   0.0000   0.0000   0.2560
   6.100   0.8293   0.00856   0.00237  -0.0113  0.0500  0.0500  -2.0106   0.0000   0.0000   0.0000   0.2558
   6.200   0.8405   0.00858   0.00240  -0.0113  0.0500  0.0500  -2.0507   0.0000   0.0000   0.0000   0.2555
   6.300   0.8518   0.00861   0.00243  -0.0114  0.0500  0.0500  -2.0911   0.0000   0.0000   0.0000   0.2553
   6.400   0.8630   0.00864   0.00247  -0.0114  0.0500  0.0500  -2.1317   0.0000   0.0000   0.0000   0.2550
   6.500   0.8742   0.00867   0.00250  -0.0114  0.0500  0.0500  -2.1724   0.0000   0.0000   0.0000   0.2548
   6.600   0.8854   0.00870   0.00254  -0.0115  0.0500  0.0500  -2.2134   0.0000   0.0000   0.0000   0.2545
   6.700   0.8966   0.00873   0.00257  -0.0115  0.0500  0.0500  -2.2572   0.0000   0.0000   0.0000   0.2543
   6.800   0.9078   0.00876   0.00261  -0.0115  0.0500  0.0500  -2.3120   0.0000   0.0000   0.0000   0.2541
   6.900   0.9189   0.00880   0.00264  -0.0116  0.0500  0.0500  -2.3672   0.0000   0.0000   0.0000   0.2538
   7.000   0.9301   0.00883   0.00268  -0.0116  0.0500  0.0500  -2.4229   0.0000   0.0000   0.0000   0.2536
   7.100   0.9413   0.00886   0.00272  -0.0116  0.0500  0.0500  -2.4789   0.0000   0.0000   0.0000   0.2533
   7.200   0.9524   0.00889   0.00276  -0.0117  0.0500  0.0500  -2.5354   0.0000   0.0000   0.0000   0.2531
   7.300   0.9636   0.00893   0.00280  -0.0117  0.0500  0.0500  -2.5923   0.0000   0.0000   0.0000   0.2529
   7.400   0.9747   0.00896   0.00284  -0.0117  0.0500  0.0500  -2.6496   0.0000   0.0000   0.0000   0.2526
   7.500   0.9858   0.00899   0.00288  -0.0117  0.0500  0.0500  -2.7074   0.0000   0.0000   0.0000   0.2524
   7.600   0.9969   0.00903   0.00292  -0.0118  0.0500  0.0500  -2.7656   0.0000   0.0000   0.0000   0.2522
   7.700   1.0080   0.00906   0.00296  -0.0118  0.0500  0.0500  -2.8241   0.0000   0.0000   0.0000   0.2519
   7.800   1.0191   0.00910   0.00300  -0.0118  0.0500  0.0500  -2.8831   0.0000   0.0000   0.0000   0.2517
   7.900   1.0302   0.00914   0.00304  -0.0118  0.0500  0.0500  -2.9425   0.0000   0.0000   0.0000   0.2515
   8.000   1.0413   0.00917   0.00308  -0.0119  0.0500  0.0500  -3.0023   0.0000   0.0000   0.0000   0.2513
   8.100   1.0523   0.00921   0.00313  -0.0119  0.0500  0.0500  -3.0625   0.0000   0.0000   0.0000   0.2510
   8.200   1.0634   0.00925   0.00317  -0.0119  0.0500  0.0500  -3.1231   0.0000   0.0000   0.0000   0.2508
   8.300   1.0744   0.00928   0.00322  -0.0119  0.0500  0.0500  -3.1841   0.0000   0.0000   0.0000   0.2506
   8.400   1.0854   0.00932   0.00326  -0.0120  0.0500  0.0500  -3.2456   0.0000   0.0000   0.0000   0.2503
   8.500   1.0965   0.00936   0.00331  -0.0120  0.0500  0.0500  -3.3074   0.0000   0.0000   0.0000   0.2501
   8.600   1.1075   0.00940   0.00335  -0.0120  0.0500  0.0500  -3.3696   0.0000   0.0000   0.0000   0.2499
   8.700   1.1185   0.00944   0.00340  -0.0120  0.0500  0.0500  -3.4322   0.0000   0.0000   0.0000   0.2496
   8.800   1.1290   0.00953   0.00348  -0.0120  0.0479  0.0500  -3.4994   0.0000   0.0000   0.0000   0.2494
   8.900   1.1395   0.00962   0.00358  -0.0119  0.0446  0.0500  -3.5820   0.0000   0.0000   0.0000   0.2491
   9.000   1.1500   0.00971   0.00366  -0.0118  0.0380  0.0500  -3.6663   0.0000   0.0000   0.0000   0.2488
   9.100   1.1607   0.00978   0.00373  -0.0118  0.0372  0.0500  -3.7532   0.0000   0.0000   0.0000   0.2485
   9.200   1.1713   0.00985   0.00380  -0.0118  0.0366  0.0500  -3.8408   0.0000   0.0000   0.0000   0.2483
   9.300   1.1816   0.00996   0.00390  -0.0117  0.0355  0.0500  -3.9280   0.0000   0.0000   0.0000   0.2480
   9.400   1.1913   0.01013   0.00405  -0.0115  0.0329  0.0500  -4.0125   0.0000   0.0000   0.0000   0.2476
   9.500   1.2008   0.01032   0.00421  -0.0113  0.0298  0.0500  -4.0970   0.0000   0.0000   0.0000   0.2472
   9.600   1.2106   0.01048   0.00434  -0.0112  0.0270  0.0500  -4.1835   0.0000   0.0000   0.0000   0.2468
   9.700   1.2208   0.01060   0.00445  -0.0111  0.0244  0.0500  -4.2727   0.0000   0.0000   0.0000   0.2465
   9.800   1.2312   0.01068   0.00453  -0.0110  0.0219  0.0500  -4.3639   0.0000   0.0000   0.0000   0.2463
   9.900   1.2417   0.01076   0.00461  -0.0110  0.0197  0.0500  -4.4565   0.0000   0.0000   0.0000   0.2460
  10.000   1.2521   0.01084   0.00469  -0.0109  0.0189  0.0500  -4.5498   0.0000   0.0000   0.0000   0.2457
  10.100   1.2625   0.01093   0.00478  -0.0109  0.0185  0.0500  -4.6435   0.0000   0.0000   0.0000   0.2455
  10.200   1.2728   0.01102   0.00487  -0.0108  0.0181  0.0500  -4.7376   0.0000   0.0000   0.0000   0.2452
  10.300   1.2830   0.01113   0.00498  -0.0107  0.0176  0.0500  -4.8318   0.0000   0.0000   0.0000   0.2449
  10.400   1.2931   0.01124   0.00509  -0.0106  0.0170  0.0500  -4.9262   0.0000   0.0000   0.0000   0.2446
  10.500   1.3031   0.01136   0.00520  -0.0105  0.0163  0.0500  -5.0210   0.0000   0.0000   0.0000   0.2443
  10.600   1.3131   0.01148   0.00532  -0.0104  0.0157  0.0500  -5.1164   0.0000   0.0000   0.0000   0.2440
  10.700   1.3230   0.01159   0.00543  -0.0103  0.0151  0.0500  -5.2125   0.0000   0.0000   0.0000   0.2436
  10.800   1.3330   0.01171   0.00555  -0.0102  0.0145  0.0500  -5.3092   0.0000   0.0000   0.0000   0.2433
  10.900   1.3429   0.01183   0.00566  -0.0100  0.0140  0.0500  -5.4064   0.0000   0.0000   0.0000   0.2430
  11.000   1.3529   0.01194   0.00578  -0.0099  0.0134  0.0500  -5.5044   0.0000   0.0000   0.0000   0.2427
  11.100   1.3628   0.01206   0.00589  -0.0098  0.0129  0.0500  -5.6032   0.0000   0.0000   0.0000   0.2424
  11.200   1.3728   0.01217   0.00600  -0.0097  0.0124  0.0500  -5.7029   0.0000   0.0000   0.0000   0.2421
  11.300   1.3827   0.01227   0.00610  -0.0096  0.0119  0.0500  -5.8033   0.0000   0.0000   0.0000   0.2418
  11.400   1.3927   0.01237   0.00621  -0.0095  0.0114  0.0500  -5.9046   0.0000   0.0000   0.0000   0.2415
  11.500   1.4027   0.01247   0.00631  -0.0094  0.0110  0.0500  -6.0067   0.0000   0.0000   0.0000   0.2412
  11.600   1.4127   0.01257   0.00641  -0.0093  0.0105  0.0500  -6.1095   0.0000   0.0000   0.0000   0.2409
  11.700   1.4227   0.01267   0.00651  -0.0092  0.0101  0.0500  -6.2129   0.0000   0.0000   0.0000   0.2406
  11.800   1.4327   0.01277   0.00661  -0.0091  0.0096  0.0500  -6.3170   0.0000   0.0000   0.0000   0.2403
  11.900   1.4433   0.01280   0.00668  -0.0091  0.0114  0.0500  -6.4292   0.0000   0.0000   0.0000   0.2401
  12.000   1.4534   0.01287   0.00677  -0.0090  0.0116  0.0500  -6.5368   0.0000   0.0000   0.0000   0.2398
  12.100   1.4630   0.01300   0.00690  -0.0088  0.0108  0.0500  -6.6415   0.0000   0.0000   0.0000   0.2395
  12.200   1.4726   0.01312   0.00702  -0.0087  0.0098  0.0500  -6.7466   0.0000   0.0000   0.0000   0.2392
  12.300   1.4823   0.01324   0.00714  -0.0085  0.0089  0.0500  -6.8527   0.0000   0.0000   0.0000   0.2389
  12.400   1.4920   0.01334   0.00725  -0.0084  0.0082  0.0500  -6.9600   0.0000   0.0000   0.0000   0.2386
  12.500   1.5017   0.01345   0.00736  -0.0083  0.0077  0.0500  -7.0681   0.0000   0.0000   0.0000   0.2383
  12.600   1.5115   0.01355   0.00746  -0.0081  0.0073  0.0500  -7.1767   0.0000   0.0000   0.0000   0.2380
  12.700   1.5212   0.01365   0.00757  -0.0080  0.0070  0.0500  -7.2858   0.0000   0.0000   0.0000   0.2376
  12.800   1.5308   0.01375   0.00768  -0.0078  0.0068  0.0500  -7.3955   0.0000   0.0000   0.0000   0.2373
  12.900   1.5404   0.01385   0.00779  -0.0077  0.0068  0.0500  -7.5057   0.0000   0.0000   0.0000   0.2370
  13.000   1.5500   0.01396   0.00791  -0.0075  0.0068  0.0500  -7.6164   0.0000   0.0000   0.0000   0.2367
  13.100   1.5595   0.01407   0.00803  -0.0074  0.0067  0.0500  -7.7275   0.0000   0.0000   0.0000   0.2364
  13.200   1.5689   0.01418   0.00815  -0.0072  0.0067  0.0500  -7.8390   0.0000   0.0000   0.0000   0.2361
  13.300   1.5783   0.01429   0.00827  -0.0071  0.0067  0.0500  -7.9509   0.0000   0.0000   0.0000   0.2357
  13.400   1.5877   0.01440   0.00839  -0.0069  0.0067  0.0500  -8.0631   0.0000   0.0000   0.0000   0.2354
  13.500   1.5970   0.01452   0.00851  -0.0067  0.0067  0.0500  -8.1758   0.0000   0.0000   0.0000   0.2351
  13.600   1.6062   0.01463   0.00864  -0.0065  0.0067  0.0500  -8.2888   0.0000   0.0000   0.0000   0.2347
  13.700   1.6154   0.01475   0.00877  -0.0063  0.0067  0.0500  -8.4021   0.0000   0.0000   0.0000   0.2344
  13.800   1.6245   0.01487   0.00890  -0.0061  0.0066  0.0500  -8.5157   0.0000   0.0000   0.0000   0.2340
  13.900   1.6336   0.01499   0.00903  -0.0059  0.0066  0.0500  -8.6297   0.0000   0.0000   0.0000   0.2337
  14.000   1.6426   0.01512   0.00916  -0.0057  0.0066  0.0500  -8.7439   0.0000   0.0000   0.0000   0.2333
  14.100   1.6515   0.01524   0.00929  -0.0054  0.0066  0.0500  -8.8583   0.0000   0.0000   0.0000   0.2330
  14.200   1.6604   0.01537   0.00943  -0.0052  0.0066  0.0500  -8.9730   0.0000   0.0000   0.0000   0.2326
  14.300   1.6692   0.01550   0.00957  -0.0049  0.0066  0.0500  -9.0879   0.0000   0.0000   0.0000   0.2323
  14.400   1.6779   0.01563   0.00971  -0.0047  0.0066  0.0500  -9.2030   0.0000   0.0000   0.0000   0.2319
  14.500   1.6866   0.01576   0.00985  -0.0044  0.0065  0.0500  -9.3182   0.0000   0.0000   0.0000   0.2315
  14.600   1.6951   0.01589   0.01000  -0.0041  0.0065  0.0500  -9.4335   0.0000   0.0000   0.0000   0.2311
  14.700   1.7036   0.01603   0.01015  -0.0039  0.0065  0.0500  -9.5489   0.0000   0.0000   0.0000   0.2307
  14.800   1.7119   0.01617   0.01030  -0.0036  0.0065  0.0500  -9.6644   0.0000   0.0000   0.0000   0.2303
  14.900   1.7192   0.01526   0.01074  -0.0034  0.0065  1.0000  -9.7633   0.0000   0.0000   0.0000   0.2300
  15.000   1.7275   0.01541   0.01090  -0.0031  0.0065  1.0000  -9.8788   0.0000   0.0000   0.0000   0.2296


