xflr5 v6.61

 Calculated polar for: NACA 0012

 1 1 Reynolds number fixed          Mach number fixed         

 xtrf =   0.050 (top)        0.050 (bottom)
 Mach =   0.000     Re =     7.341 e 6     Ncrit =   9.000

  alpha     CL        CD       CDp       Cm    Top Xtr Bot Xtr   Cpmin    Chinge    XCp    
 ------- -------- --------- --------- -------- ------- ------- -------- --------- ---------
  -5.000  -0.5728   0.00815   0.00184   0.0017  0.0500  0.0500  -1.9766   0.0000   0.0000   0.0000   0.2469
  -4.900  -0.5614   0.00813   0.00181   0.0017  0.0500  0.0500  -1.9233   0.0000   0.0000   0.0000   0.2470
  -4.800  -0.5501   0.00811   0.00179   0.0017  0.0500  0.0500  -1.8705   0.0000   0.0000   0.0000   0.2471
  -4.700  -0.5387   0.00809   0.00176   0.0016  0.0500  0.0500  -1.8181   0.0000   0.0000   0.0000   0.2472
  -4.600  -0.5273   0.00807   0.00174   0.0016  0.0500  0.0500  -1.7661   0.0000   0.0000   0.0000   0.2472
  -4.500  -0.5159   0.00805   0.00171   0.0016  0.0500  0.0500  -1.7148   0.0000   0.0000   0.0000   0.2473
  -4.400  -0.5045   0.00803   0.00169   0.0016  0.0500  0.0500  -1.6671   0.0000   0.0000   0.0000   0.2474
  -4.300  -0.4931   0.00802   0.00167   0.0015  0.0500  0.0500  -1.6198   0.0000   0.0000   0.0000   0.2475
  -4.200  -0.4817   0.00800   0.00165   0.0015  0.0500  0.0500  -1.5729   0.0000   0.0000   0.0000   0.2475
  -4.100  -0.4703   0.00798   0.00163   0.0015  0.0500  0.0500  -1.5264   0.0000   0.0000   0.0000   0.2476
  -4.000  -0.4589   0.00797   0.00161   0.0014  0.0500  0.0500  -1.4803   0.0000   0.0000   0.0000   0.2477
  -3.900  -0.4475   0.00795   0.00159   0.0014  0.0500  0.0500  -1.4362   0.0000   0.0000   0.0000   0.2478
  -3.800  -0.4360   0.00794   0.00156   0.0014  0.0500  0.0500  -1.3939   0.0000   0.0000   0.0000   0.2478
  -3.700  -0.4246   0.00792   0.00155   0.0014  0.0500  0.0500  -1.3519   0.0000   0.0000   0.0000   0.2479
  -3.600  -0.4132   0.00791   0.00153   0.0013  0.0500  0.0500  -1.3103   0.0000   0.0000   0.0000   0.2479
  -3.500  -0.4018   0.00790   0.00151   0.0013  0.0500  0.0500  -1.2690   0.0000   0.0000   0.0000   0.2480
  -3.400  -0.3903   0.00788   0.00149   0.0013  0.0500  0.0500  -1.2284   0.0000   0.0000   0.0000   0.2481
  -3.300  -0.3789   0.00787   0.00148   0.0012  0.0500  0.0500  -1.1905   0.0000   0.0000   0.0000   0.2481
  -3.200  -0.3674   0.00786   0.00146   0.0012  0.0500  0.0500  -1.1530   0.0000   0.0000   0.0000   0.2482
  -3.100  -0.3560   0.00784   0.00144   0.0012  0.0500  0.0500  -1.1157   0.0000   0.0000   0.0000   0.2482
  -3.000  -0.3445   0.00783   0.00143   0.0011  0.0500  0.0500  -1.0805   0.0000   0.0000   0.0000   0.2483
  -2.900  -0.3331   0.00782   0.00141   0.0011  0.0500  0.0500  -1.0463   0.0000   0.0000   0.0000   0.2483
  -2.800  -0.3216   0.00781   0.00140   0.0011  0.0500  0.0500  -1.0123   0.0000   0.0000   0.0000   0.2484
  -2.700  -0.3102   0.00780   0.00138   0.0010  0.0500  0.0500  -0.9789   0.0000   0.0000   0.0000   0.2484
  -2.600  -0.2987   0.00779   0.00137   0.0010  0.0500  0.0500  -0.9477   0.0000   0.0000   0.0000   0.2485
  -2.500  -0.2872   0.00778   0.00136   0.0010  0.0500  0.0500  -0.9167   0.0000   0.0000   0.0000   0.2485
  -2.400  -0.2758   0.00777   0.00135   0.0009  0.0500  0.0500  -0.8863   0.0000   0.0000   0.0000   0.2486
  -2.300  -0.2643   0.00776   0.00133   0.0009  0.0500  0.0500  -0.8579   0.0000   0.0000   0.0000   0.2486
  -2.200  -0.2528   0.00775   0.00132   0.0008  0.0500  0.0500  -0.8297   0.0000   0.0000   0.0000   0.2486
  -2.100  -0.2413   0.00774   0.00131   0.0008  0.0500  0.0500  -0.8024   0.0000   0.0000   0.0000   0.2487
  -2.000  -0.2299   0.00774   0.00130   0.0008  0.0500  0.0500  -0.7764   0.0000   0.0000   0.0000   0.2487
  -1.900  -0.2184   0.00773   0.00129   0.0007  0.0500  0.0500  -0.7507   0.0000   0.0000   0.0000   0.2488
  -1.800  -0.2069   0.00772   0.00128   0.0007  0.0500  0.0500  -0.7267   0.0000   0.0000   0.0000   0.2488
  -1.700  -0.1954   0.00772   0.00127   0.0007  0.0500  0.0500  -0.7047   0.0000   0.0000   0.0000   0.2488
  -1.600  -0.1839   0.00771   0.00126   0.0006  0.0500  0.0500  -0.6827   0.0000   0.0000   0.0000   0.2488
  -1.500  -0.1724   0.00770   0.00126   0.0006  0.0500  0.0500  -0.6609   0.0000   0.0000   0.0000   0.2489
  -1.400  -0.1609   0.00770   0.00125   0.0005  0.0500  0.0500  -0.6393   0.0000   0.0000   0.0000   0.2489
  -1.300  -0.1495   0.00769   0.00124   0.0005  0.0500  0.0500  -0.6177   0.0000   0.0000   0.0000   0.2489
  -1.200  -0.1380   0.00769   0.00124   0.0005  0.0500  0.0500  -0.5964   0.0000   0.0000   0.0000   0.2489
  -1.100  -0.1265   0.00768   0.00123   0.0004  0.0500  0.0500  -0.5751   0.0000   0.0000   0.0000   0.2490
  -1.000  -0.1150   0.00768   0.00123   0.0004  0.0500  0.0500  -0.5545   0.0000   0.0000   0.0000   0.2490
  -0.900  -0.1035   0.00768   0.00122   0.0004  0.0500  0.0500  -0.5360   0.0000   0.0000   0.0000   0.2490
  -0.800  -0.0920   0.00767   0.00122   0.0003  0.0500  0.0500  -0.5207   0.0000   0.0000   0.0000   0.2490
  -0.700  -0.0805   0.00767   0.00121   0.0003  0.0500  0.0500  -0.5054   0.0000   0.0000   0.0000   0.2490
  -0.600  -0.0690   0.00767   0.00121   0.0002  0.0500  0.0500  -0.4903   0.0000   0.0000   0.0000   0.2490
  -0.500  -0.0575   0.00767   0.00121   0.0002  0.0500  0.0500  -0.4761   0.0000   0.0000   0.0000   0.2490
  -0.400  -0.0460   0.00766   0.00120   0.0002  0.0500  0.0500  -0.4621   0.0000   0.0000   0.0000   0.2490
  -0.300  -0.0345   0.00766   0.00120   0.0001  0.0500  0.0500  -0.4481   0.0000   0.0000   0.0000   0.2491
  -0.200  -0.0230   0.00766   0.00120   0.0001  0.0500  0.0500  -0.4350   0.0000   0.0000   0.0000   0.2491
  -0.100  -0.0115   0.00766   0.00120   0.0000  0.0500  0.0500  -0.4221   0.0000   0.0000   0.0000   0.2491
   0.000  -0.0000   0.00766   0.00120   0.0000  0.0500  0.0500  -0.4099   0.0000   0.0000   0.0000   0.8537
   0.100   0.0115   0.00766   0.00120  -0.0000  0.0500  0.0500  -0.4221   0.0000   0.0000   0.0000   0.2491
   0.200   0.0230   0.00766   0.00120  -0.0001  0.0500  0.0500  -0.4350   0.0000   0.0000   0.0000   0.2491
   0.300   0.0345   0.00766   0.00120  -0.0001  0.0500  0.0500  -0.4481   0.0000   0.0000   0.0000   0.2491
   0.400   0.0460   0.00766   0.00120  -0.0002  0.0500  0.0500  -0.4621   0.0000   0.0000   0.0000   0.2490
   0.500   0.0575   0.00767   0.00121  -0.0002  0.0500  0.0500  -0.4761   0.0000   0.0000   0.0000   0.2490
   0.600   0.0690   0.00767   0.00121  -0.0002  0.0500  0.0500  -0.4903   0.0000   0.0000   0.0000   0.2490
   0.700   0.0805   0.00767   0.00121  -0.0003  0.0500  0.0500  -0.5054   0.0000   0.0000   0.0000   0.2490
   0.800   0.0920   0.00767   0.00122  -0.0003  0.0500  0.0500  -0.5207   0.0000   0.0000   0.0000   0.2490
   0.900   0.1035   0.00768   0.00122  -0.0004  0.0500  0.0500  -0.5360   0.0000   0.0000   0.0000   0.2490
   1.000   0.1150   0.00768   0.00123  -0.0004  0.0500  0.0500  -0.5545   0.0000   0.0000   0.0000   0.2490
   1.100   0.1265   0.00768   0.00123  -0.0004  0.0500  0.0500  -0.5750   0.0000   0.0000   0.0000   0.2490
   1.200   0.1380   0.00769   0.00124  -0.0005  0.0500  0.0500  -0.5963   0.0000   0.0000   0.0000   0.2489
   1.300   0.1495   0.00769   0.00124  -0.0005  0.0500  0.0500  -0.6177   0.0000   0.0000   0.0000   0.2489
   1.400   0.1610   0.00770   0.00125  -0.0005  0.0500  0.0500  -0.6392   0.0000   0.0000   0.0000   0.2489
   1.500   0.1724   0.00770   0.00126  -0.0006  0.0500  0.0500  -0.6609   0.0000   0.0000   0.0000   0.2489
   1.600   0.1839   0.00771   0.00126  -0.0006  0.0500  0.0500  -0.6827   0.0000   0.0000   0.0000   0.2488
   1.700   0.1954   0.00772   0.00127  -0.0007  0.0500  0.0500  -0.7046   0.0000   0.0000   0.0000   0.2488
   1.800   0.2069   0.00772   0.00128  -0.0007  0.0500  0.0500  -0.7267   0.0000   0.0000   0.0000   0.2488
   1.900   0.2184   0.00773   0.00129  -0.0007  0.0500  0.0500  -0.7505   0.0000   0.0000   0.0000   0.2488
   2.000   0.2299   0.00774   0.00130  -0.0008  0.0500  0.0500  -0.7763   0.0000   0.0000   0.0000   0.2487
   2.100   0.2413   0.00774   0.00131  -0.0008  0.0500  0.0500  -0.8022   0.0000   0.0000   0.0000   0.2487
   2.200   0.2528   0.00775   0.00132  -0.0008  0.0500  0.0500  -0.8297   0.0000   0.0000   0.0000   0.2486
   2.300   0.2643   0.00776   0.00133  -0.0009  0.0500  0.0500  -0.8579   0.0000   0.0000   0.0000   0.2486
   2.400   0.2758   0.00777   0.00135  -0.0009  0.0500  0.0500  -0.8863   0.0000   0.0000   0.0000   0.2486
   2.500   0.2872   0.00778   0.00136  -0.0010  0.0500  0.0500  -0.9167   0.0000   0.0000   0.0000   0.2485
   2.600   0.2987   0.00779   0.00137  -0.0010  0.0500  0.0500  -0.9477   0.0000   0.0000   0.0000   0.2485
   2.700   0.3102   0.00780   0.00138  -0.0010  0.0500  0.0500  -0.9788   0.0000   0.0000   0.0000   0.2484
   2.800   0.3216   0.00781   0.00140  -0.0011  0.0500  0.0500  -1.0123   0.0000   0.0000   0.0000   0.2484
   2.900   0.3331   0.00782   0.00141  -0.0011  0.0500  0.0500  -1.0463   0.0000   0.0000   0.0000   0.2483
   3.000   0.3445   0.00783   0.00143  -0.0011  0.0500  0.0500  -1.0805   0.0000   0.0000   0.0000   0.2483
   3.100   0.3560   0.00784   0.00144  -0.0012  0.0500  0.0500  -1.1157   0.0000   0.0000   0.0000   0.2482
   3.200   0.3674   0.00786   0.00146  -0.0012  0.0500  0.0500  -1.1530   0.0000   0.0000   0.0000   0.2482
   3.300   0.3789   0.00787   0.00148  -0.0012  0.0500  0.0500  -1.1905   0.0000   0.0000   0.0000   0.2481
   3.400   0.3903   0.00788   0.00149  -0.0013  0.0500  0.0500  -1.2284   0.0000   0.0000   0.0000   0.2481
   3.500   0.4018   0.00790   0.00151  -0.0013  0.0500  0.0500  -1.2690   0.0000   0.0000   0.0000   0.2480
   3.600   0.4132   0.00791   0.00153  -0.0013  0.0500  0.0500  -1.3103   0.0000   0.0000   0.0000   0.2480
   3.700   0.4246   0.00792   0.00155  -0.0014  0.0500  0.0500  -1.3519   0.0000   0.0000   0.0000   0.2479
   3.800   0.4361   0.00794   0.00156  -0.0014  0.0500  0.0500  -1.3939   0.0000   0.0000   0.0000   0.2478
   3.900   0.4475   0.00795   0.00159  -0.0014  0.0500  0.0500  -1.4362   0.0000   0.0000   0.0000   0.2478
   4.000   0.4589   0.00797   0.00161  -0.0014  0.0500  0.0500  -1.4804   0.0000   0.0000   0.0000   0.2477
   4.100   0.4703   0.00798   0.00163  -0.0015  0.0500  0.0500  -1.5264   0.0000   0.0000   0.0000   0.2476
   4.200   0.4817   0.00800   0.00165  -0.0015  0.0500  0.0500  -1.5729   0.0000   0.0000   0.0000   0.2475
   4.300   0.4931   0.00802   0.00167  -0.0015  0.0500  0.0500  -1.6198   0.0000   0.0000   0.0000   0.2475
   4.400   0.5045   0.00803   0.00169  -0.0016  0.0500  0.0500  -1.6671   0.0000   0.0000   0.0000   0.2474
   4.500   0.5159   0.00805   0.00171  -0.0016  0.0500  0.0500  -1.7148   0.0000   0.0000   0.0000   0.2473
   4.600   0.5273   0.00807   0.00174  -0.0016  0.0500  0.0500  -1.7662   0.0000   0.0000   0.0000   0.2472
   4.700   0.5387   0.00809   0.00176  -0.0016  0.0500  0.0500  -1.8181   0.0000   0.0000   0.0000   0.2472
   4.800   0.5501   0.00811   0.00179  -0.0017  0.0500  0.0500  -1.8705   0.0000   0.0000   0.0000   0.2471
   4.900   0.5615   0.00813   0.00181  -0.0017  0.0500  0.0500  -1.9234   0.0000   0.0000   0.0000   0.2470
   5.000   0.5728   0.00815   0.00184  -0.0017  0.0500  0.0500  -1.9767   0.0000   0.0000   0.0000   0.2469
   5.100   0.5842   0.00817   0.00187  -0.0017  0.0500  0.0500  -2.0304   0.0000   0.0000   0.0000   0.2468
   5.200   0.5956   0.00819   0.00189  -0.0018  0.0500  0.0500  -2.0846   0.0000   0.0000   0.0000   0.2467
   5.300   0.6069   0.00821   0.00192  -0.0018  0.0500  0.0500  -2.1430   0.0000   0.0000   0.0000   0.2466
   5.400   0.6183   0.00823   0.00195  -0.0018  0.0500  0.0500  -2.2019   0.0000   0.0000   0.0000   0.2465
   5.500   0.6294   0.00828   0.00200  -0.0018  0.0475  0.0500  -2.2605   0.0000   0.0000   0.0000   0.2464
   5.600   0.6406   0.00832   0.00203  -0.0018  0.0457  0.0500  -2.3201   0.0000   0.0000   0.0000   0.2463
   5.700   0.6518   0.00836   0.00207  -0.0018  0.0447  0.0500  -2.3803   0.0000   0.0000   0.0000   0.2462
   5.800   0.6629   0.00841   0.00211  -0.0018  0.0432  0.0500  -2.4407   0.0000   0.0000   0.0000   0.2460
   5.900   0.6740   0.00846   0.00216  -0.0017  0.0413  0.0500  -2.5013   0.0000   0.0000   0.0000   0.2459
   6.000   0.6851   0.00851   0.00221  -0.0017  0.0393  0.0500  -2.5626   0.0000   0.0000   0.0000   0.2457
   6.100   0.6964   0.00854   0.00225  -0.0017  0.0387  0.0500  -2.6249   0.0000   0.0000   0.0000   0.2456
   6.200   0.7075   0.00859   0.00229  -0.0017  0.0378  0.0500  -2.6907   0.0000   0.0000   0.0000   0.2455
   6.300   0.7186   0.00864   0.00234  -0.0017  0.0363  0.0500  -2.7577   0.0000   0.0000   0.0000   0.2453
   6.400   0.7296   0.00871   0.00239  -0.0017  0.0344  0.0500  -2.8251   0.0000   0.0000   0.0000   0.2452
   6.500   0.7407   0.00875   0.00244  -0.0017  0.0333  0.0500  -2.8935   0.0000   0.0000   0.0000   0.2450
   6.600   0.7519   0.00879   0.00248  -0.0017  0.0327  0.0500  -2.9628   0.0000   0.0000   0.0000   0.2449
   6.700   0.7630   0.00884   0.00253  -0.0017  0.0319  0.0500  -3.0324   0.0000   0.0000   0.0000   0.2448
   6.800   0.7740   0.00889   0.00259  -0.0016  0.0309  0.0500  -3.1023   0.0000   0.0000   0.0000   0.2446
   6.900   0.7849   0.00896   0.00264  -0.0016  0.0296  0.0500  -3.1724   0.0000   0.0000   0.0000   0.2444
   7.000   0.7960   0.00901   0.00270  -0.0016  0.0284  0.0500  -3.2434   0.0000   0.0000   0.0000   0.2443
   7.100   0.8071   0.00905   0.00274  -0.0016  0.0281  0.0500  -3.3155   0.0000   0.0000   0.0000   0.2442
   7.200   0.8182   0.00910   0.00279  -0.0016  0.0276  0.0500  -3.3880   0.0000   0.0000   0.0000   0.2440
   7.300   0.8292   0.00915   0.00285  -0.0015  0.0270  0.0500  -3.4608   0.0000   0.0000   0.0000   0.2439
   7.400   0.8401   0.00921   0.00291  -0.0015  0.0262  0.0500  -3.5340   0.0000   0.0000   0.0000   0.2437
   7.500   0.8510   0.00928   0.00297  -0.0015  0.0251  0.0500  -3.6121   0.0000   0.0000   0.0000   0.2435
   7.600   0.8620   0.00934   0.00303  -0.0014  0.0240  0.0500  -3.6909   0.0000   0.0000   0.0000   0.2434
   7.700   0.8730   0.00938   0.00308  -0.0014  0.0238  0.0500  -3.7714   0.0000   0.0000   0.0000   0.2432
   7.800   0.8840   0.00943   0.00314  -0.0014  0.0234  0.0500  -3.8522   0.0000   0.0000   0.0000   0.2431
   7.900   0.8950   0.00949   0.00320  -0.0013  0.0229  0.0500  -3.9335   0.0000   0.0000   0.0000   0.2429
   8.000   0.9059   0.00955   0.00326  -0.0013  0.0224  0.0500  -4.0151   0.0000   0.0000   0.0000   0.2428
   8.100   0.9167   0.00962   0.00333  -0.0013  0.0217  0.0500  -4.0969   0.0000   0.0000   0.0000   0.2426
   8.200   0.9275   0.00969   0.00340  -0.0012  0.0210  0.0500  -4.1792   0.0000   0.0000   0.0000   0.2424
   8.300   0.9383   0.00976   0.00347  -0.0012  0.0202  0.0500  -4.2621   0.0000   0.0000   0.0000   0.2422
   8.400   0.9493   0.00981   0.00353  -0.0011  0.0200  0.0500  -4.3467   0.0000   0.0000   0.0000   0.2421
   8.500   0.9602   0.00986   0.00358  -0.0011  0.0198  0.0500  -4.4318   0.0000   0.0000   0.0000   0.2419
   8.600   0.9711   0.00992   0.00365  -0.0011  0.0196  0.0500  -4.5173   0.0000   0.0000   0.0000   0.2417
   8.700   0.9819   0.00998   0.00371  -0.0010  0.0193  0.0500  -4.6032   0.0000   0.0000   0.0000   0.2416
   8.800   0.9927   0.01005   0.00378  -0.0010  0.0189  0.0500  -4.6895   0.0000   0.0000   0.0000   0.2414
   8.900   1.0034   0.01012   0.00386  -0.0009  0.0184  0.0500  -4.7761   0.0000   0.0000   0.0000   0.2412
   9.000   1.0141   0.01020   0.00394  -0.0008  0.0179  0.0500  -4.8630   0.0000   0.0000   0.0000   0.2410
   9.100   1.0248   0.01028   0.00402  -0.0008  0.0173  0.0500  -4.9501   0.0000   0.0000   0.0000   0.2408
   9.200   1.0354   0.01035   0.00410  -0.0007  0.0167  0.0500  -5.0399   0.0000   0.0000   0.0000   0.2406
   9.300   1.0463   0.01041   0.00416  -0.0006  0.0167  0.0500  -5.1353   0.0000   0.0000   0.0000   0.2404
   9.400   1.0570   0.01047   0.00423  -0.0006  0.0165  0.0500  -5.2311   0.0000   0.0000   0.0000   0.2403
   9.500   1.0678   0.01054   0.00430  -0.0005  0.0163  0.0500  -5.3274   0.0000   0.0000   0.0000   0.2401
   9.600   1.0785   0.01061   0.00438  -0.0005  0.0161  0.0500  -5.4241   0.0000   0.0000   0.0000   0.2399
   9.700   1.0891   0.01068   0.00445  -0.0004  0.0158  0.0500  -5.5212   0.0000   0.0000   0.0000   0.2397
   9.800   1.0997   0.01076   0.00454  -0.0003  0.0156  0.0500  -5.6187   0.0000   0.0000   0.0000   0.2395
   9.900   1.1102   0.01084   0.00463  -0.0002  0.0152  0.0500  -5.7165   0.0000   0.0000   0.0000   0.2393
  10.000   1.1207   0.01093   0.00472  -0.0001  0.0149  0.0500  -5.8146   0.0000   0.0000   0.0000   0.2391
  10.100   1.1311   0.01102   0.00481  -0.0000  0.0144  0.0500  -5.9130   0.0000   0.0000   0.0000   0.2388
  10.200   1.1416   0.01111   0.00491   0.0001  0.0140  0.0500  -6.0118   0.0000   0.0000   0.0000   0.2386
  10.300   1.1520   0.01119   0.00500   0.0001  0.0137  0.0500  -6.1118   0.0000   0.0000   0.0000   0.2384
  10.400   1.1626   0.01126   0.00507   0.0002  0.0137  0.0500  -6.2138   0.0000   0.0000   0.0000   0.2382
  10.500   1.1732   0.01133   0.00515   0.0003  0.0136  0.0500  -6.3162   0.0000   0.0000   0.0000   0.2380
  10.600   1.1837   0.01141   0.00523   0.0004  0.0135  0.0500  -6.4191   0.0000   0.0000   0.0000   0.2378
  10.700   1.1942   0.01149   0.00532   0.0005  0.0134  0.0500  -6.5225   0.0000   0.0000   0.0000   0.2376
  10.800   1.2046   0.01157   0.00541   0.0005  0.0133  0.0500  -6.6262   0.0000   0.0000   0.0000   0.2374
  10.900   1.2150   0.01165   0.00550   0.0006  0.0131  0.0500  -6.7304   0.0000   0.0000   0.0000   0.2372
  11.000   1.2254   0.01174   0.00559   0.0008  0.0129  0.0500  -6.8349   0.0000   0.0000   0.0000   0.2369
  11.100   1.2356   0.01183   0.00569   0.0009  0.0128  0.0500  -6.9397   0.0000   0.0000   0.0000   0.2367
  11.200   1.2458   0.01193   0.00580   0.0010  0.0125  0.0500  -7.0447   0.0000   0.0000   0.0000   0.2365
  11.300   1.2560   0.01203   0.00590   0.0011  0.0123  0.0500  -7.1500   0.0000   0.0000   0.0000   0.2362
  11.400   1.2661   0.01214   0.00601   0.0013  0.0120  0.0500  -7.2554   0.0000   0.0000   0.0000   0.2360
  11.500   1.2761   0.01225   0.00613   0.0014  0.0117  0.0500  -7.3609   0.0000   0.0000   0.0000   0.2357
  11.600   1.2862   0.01236   0.00625   0.0016  0.0114  0.0500  -7.4666   0.0000   0.0000   0.0000   0.2355
  11.700   1.2961   0.01248   0.00637   0.0017  0.0111  0.0500  -7.5724   0.0000   0.0000   0.0000   0.2352
  11.800   1.3064   0.01256   0.00647   0.0018  0.0111  0.0500  -7.6822   0.0000   0.0000   0.0000   0.2350
  11.900   1.3166   0.01265   0.00656   0.0019  0.0111  0.0500  -7.7974   0.0000   0.0000   0.0000   0.2348
  12.000   1.3267   0.01274   0.00666   0.0021  0.0110  0.0500  -7.9138   0.0000   0.0000   0.0000   0.2345
  12.100   1.3369   0.01283   0.00676   0.0022  0.0110  0.0500  -8.0307   0.0000   0.0000   0.0000   0.2343
  12.200   1.3469   0.01292   0.00686   0.0023  0.0109  0.0500  -8.1479   0.0000   0.0000   0.0000   0.2340
  12.300   1.3569   0.01302   0.00697   0.0025  0.0108  0.0500  -8.2654   0.0000   0.0000   0.0000   0.2338
  12.400   1.3669   0.01312   0.00708   0.0026  0.0107  0.0500  -8.3833   0.0000   0.0000   0.0000   0.2335
  12.500   1.3768   0.01323   0.00719   0.0028  0.0106  0.0500  -8.5015   0.0000   0.0000   0.0000   0.2333
  12.600   1.3866   0.01334   0.00731   0.0030  0.0105  0.0500  -8.6201   0.0000   0.0000   0.0000   0.2330
  12.700   1.3964   0.01345   0.00743   0.0031  0.0104  0.0500  -8.7389   0.0000   0.0000   0.0000   0.2327
  12.800   1.4061   0.01357   0.00756   0.0033  0.0103  0.0500  -8.8580   0.0000   0.0000   0.0000   0.2325
  12.900   1.4157   0.01369   0.00769   0.0035  0.0101  0.0500  -8.9772   0.0000   0.0000   0.0000   0.2322
  13.000   1.4253   0.01381   0.00782   0.0037  0.0100  0.0500  -9.0964   0.0000   0.0000   0.0000   0.2319
  13.100   1.4348   0.01395   0.00796   0.0039  0.0098  0.0500  -9.2158   0.0000   0.0000   0.0000   0.2316
  13.200   1.4442   0.01408   0.00810   0.0041  0.0097  0.0500  -9.3353   0.0000   0.0000   0.0000   0.2313
  13.300   1.4535   0.01422   0.00825   0.0044  0.0095  0.0500  -9.4547   0.0000   0.0000   0.0000   0.2310
  13.400   1.4628   0.01436   0.00840   0.0046  0.0093  0.0500  -9.5742   0.0000   0.0000   0.0000   0.2307
  13.500   1.4720   0.01451   0.00855   0.0049  0.0091  0.0500  -9.6935   0.0000   0.0000   0.0000   0.2303
  13.600   1.4811   0.01466   0.00872   0.0051  0.0089  0.0500  -9.8128   0.0000   0.0000   0.0000   0.2300
  13.700   1.4904   0.01479   0.00886   0.0054  0.0088  0.0500  -9.9345   0.0000   0.0000   0.0000   0.2297
  13.800   1.4998   0.01491   0.00899   0.0056  0.0088  0.0500  -10.0588   0.0000   0.0000   0.0000   0.2294
  14.500   1.5619   0.01460   0.01021   0.0073  0.0086  1.0000  -10.9143   0.0000   0.0000   0.0000   0.2272
  14.600   1.5709   0.01475   0.01036   0.0076  0.0086  1.0000  -11.0406   0.0000   0.0000   0.0000   0.2269
  14.700   1.5798   0.01490   0.01051   0.0079  0.0085  1.0000  -11.1669   0.0000   0.0000   0.0000   0.2265
  14.800   1.5886   0.01505   0.01067   0.0082  0.0085  1.0000  -11.2931   0.0000   0.0000   0.0000   0.2262
  14.900   1.5973   0.01520   0.01083   0.0085  0.0084  1.0000  -11.4194   0.0000   0.0000   0.0000   0.2258
  15.000   1.6059   0.01536   0.01099   0.0088  0.0084  1.0000  -11.5455   0.0000   0.0000   0.0000   0.2255


