xflr5 v6.61

 Calculated polar for: NACA 23016

 1 1 Reynolds number fixed          Mach number fixed         

 xtrf =   0.050 (top)        0.050 (bottom)
 Mach =   0.000     Re = 15350.000 e 6     Ncrit =   9.000

  alpha     CL        CD       CDp       Cm    Top Xtr Bot Xtr   Cpmin    Chinge    XCp    
 ------- -------- --------- --------- -------- ------- ------- -------- --------- ---------
  -5.000  -0.4659   0.00360   0.00091  -0.0043  0.0279  0.0000  -2.5196   0.0000   0.0000   0.0000   0.2314
  -4.900  -0.4539   0.00359   0.00090  -0.0044  0.0270  0.0000  -2.4629   0.0000   0.0000   0.0000   0.2309
  -4.800  -0.4418   0.00358   0.00089  -0.0045  0.0264  0.0000  -2.4066   0.0000   0.0000   0.0000   0.2304
  -4.700  -0.4298   0.00356   0.00088  -0.0046  0.0259  0.0000  -2.3507   0.0000   0.0000   0.0000   0.2299
  -4.600  -0.4178   0.00355   0.00087  -0.0048  0.0257  0.0000  -2.2952   0.0000   0.0000   0.0000   0.2294
  -4.500  -0.4057   0.00354   0.00086  -0.0049  0.0257  0.0000  -2.2402   0.0000   0.0000   0.0000   0.2288
  -4.400  -0.3937   0.00353   0.00085  -0.0050  0.0257  0.0001  -2.1857   0.0000   0.0000   0.0000   0.2281
  -4.300  -0.3816   0.00352   0.00084  -0.0051  0.0246  0.0001  -2.1315   0.0000   0.0000   0.0000   0.2274
  -4.200  -0.3696   0.00351   0.00082  -0.0052  0.0238  0.0002  -2.0779   0.0000   0.0000   0.0000   0.2267
  -3.900  -0.3334   0.00348   0.00080  -0.0055  0.0224  0.0002  -1.9194   0.0000   0.0000   0.0000   0.2241
  -3.800  -0.3213   0.00348   0.00079  -0.0057  0.0224  0.0002  -1.8675   0.0000   0.0000   0.0000   0.2231
  -3.700  -0.3092   0.00347   0.00078  -0.0058  0.0223  0.0003  -1.8160   0.0000   0.0000   0.0000   0.2220
  -3.600  -0.2971   0.00346   0.00077  -0.0059  0.0213  0.0004  -1.7671   0.0000   0.0000   0.0000   0.2208
  -3.500  -0.2851   0.00345   0.00076  -0.0060  0.0206  0.0005  -1.7194   0.0000   0.0000   0.0000   0.2195
  -3.400  -0.2730   0.00344   0.00076  -0.0061  0.0200  0.0005  -1.6722   0.0000   0.0000   0.0000   0.2181
  -3.300  -0.2609   0.00344   0.00075  -0.0062  0.0195  0.0005  -1.6253   0.0000   0.0000   0.0000   0.2165
  -3.200  -0.2488   0.00343   0.00075  -0.0064  0.0194  0.0005  -1.5788   0.0000   0.0000   0.0000   0.2148
  -3.100  -0.2367   0.00342   0.00074  -0.0065  0.0194  0.0006  -1.5327   0.0000   0.0000   0.0000   0.2129
  -3.000  -0.2246   0.00342   0.00073  -0.0066  0.0190  0.0007  -1.4870   0.0000   0.0000   0.0000   0.2108
  -2.900  -0.2125   0.00341   0.00073  -0.0067  0.0182  0.0008  -1.4417   0.0000   0.0000   0.0000   0.2084
  -2.800  -0.2004   0.00340   0.00072  -0.0069  0.0176  0.0010  -1.3968   0.0000   0.0000   0.0000   0.2058
  -2.700  -0.1883   0.00340   0.00071  -0.0070  0.0171  0.0011  -1.3523   0.0000   0.0000   0.0000   0.2028
  -2.500  -0.1641   0.00339   0.00070  -0.0072  0.0167  0.0011  -1.2645   0.0000   0.0000   0.0000   0.1954
  -2.400  -0.1520   0.00338   0.00070  -0.0074  0.0167  0.0011  -1.2218   0.0000   0.0000   0.0000   0.1909
  -2.300  -0.1399   0.00338   0.00070  -0.0075  0.0160  0.0012  -1.1815   0.0000   0.0000   0.0000   0.1855
  -2.200  -0.1278   0.00338   0.00069  -0.0076  0.0153  0.0013  -1.1416   0.0000   0.0000   0.0000   0.1791
  -2.100  -0.1157   0.00337   0.00069  -0.0078  0.0148  0.0015  -1.1020   0.0000   0.0000   0.0000   0.1713
  -2.000  -0.1036   0.00337   0.00069  -0.0079  0.0144  0.0016  -1.0627   0.0000   0.0000   0.0000   0.1617
  -1.900  -0.0915   0.00336   0.00068  -0.0080  0.0142  0.0019  -1.0239   0.0000   0.0000   0.0000   0.1496
  -1.800  -0.0793   0.00336   0.00068  -0.0082  0.0142  0.0019  -0.9853   0.0000   0.0000   0.0000   0.1338
  -1.700  -0.0672   0.00336   0.00068  -0.0083  0.0139  0.0019  -0.9471   0.0000   0.0000   0.0000   0.1122
  -1.600  -0.0551   0.00336   0.00067  -0.0084  0.0133  0.0019  -0.9115   0.0000   0.0000   0.0000   0.0811
  -1.500  -0.0430   0.00336   0.00067  -0.0086  0.0128  0.0020  -0.8763   0.0000   0.0000   0.0000   0.0324
  -1.400  -0.0309   0.00335   0.00067  -0.0087  0.0124  0.0021  -0.8414   0.0000   0.0000   0.0000  -0.0546
  -1.300  -0.0187   0.00335   0.00067  -0.0088  0.0120  0.0023  -0.8068   0.0000   0.0000   0.0000  -0.2542
  -1.200  -0.0066   0.00335   0.00067  -0.0090  0.0120  0.0026  -0.7725   0.0000   0.0000   0.0000  -1.1867
  -1.100   0.0055   0.00335   0.00067  -0.0091  0.0120  0.0029  -0.7386   0.0000   0.0000   0.0000   1.9805
  -1.000   0.0176   0.00335   0.00066  -0.0092  0.0113  0.0029  -0.7136   0.0000   0.0000   0.0000   0.7933
  -0.900   0.0298   0.00335   0.00066  -0.0094  0.0107  0.0029  -0.7282   0.0000   0.0000   0.0000   0.5735
  -0.800   0.0419   0.00335   0.00066  -0.0095  0.0103  0.0029  -0.7428   0.0000   0.0000   0.0000   0.4810
  -0.600   0.0661   0.00335   0.00066  -0.0098  0.0100  0.0032  -0.7722   0.0000   0.0000   0.0000   0.3977
  -0.500   0.0783   0.00335   0.00067  -0.0099  0.0100  0.0034  -0.7869   0.0000   0.0000   0.0000   0.3754
  -0.400   0.0904   0.00335   0.00067  -0.0101  0.0095  0.0036  -0.8017   0.0000   0.0000   0.0000   0.3591
  -0.300   0.1025   0.00335   0.00067  -0.0102  0.0091  0.0039  -0.8166   0.0000   0.0000   0.0000   0.3467
  -0.200   0.1146   0.00335   0.00067  -0.0104  0.0087  0.0042  -0.8315   0.0000   0.0000   0.0000   0.3369
  -0.100   0.1267   0.00336   0.00067  -0.0105  0.0084  0.0042  -0.8465   0.0000   0.0000   0.0000   0.3289
   0.100   0.1510   0.00336   0.00067  -0.0108  0.0081  0.0042  -0.8779   0.0000   0.0000   0.0000   0.3169
   0.200   0.1631   0.00336   0.00067  -0.0109  0.0079  0.0044  -0.8939   0.0000   0.0000   0.0000   0.3122
   0.300   0.1752   0.00337   0.00068  -0.0111  0.0074  0.0046  -0.9099   0.0000   0.0000   0.0000   0.3082
   0.400   0.1873   0.00337   0.00068  -0.0112  0.0070  0.0049  -0.9260   0.0000   0.0000   0.0000   0.3047
   0.500   0.1995   0.00337   0.00068  -0.0114  0.0066  0.0052  -0.9421   0.0000   0.0000   0.0000   0.3016
   0.600   0.2116   0.00337   0.00068  -0.0115  0.0065  0.0055  -0.9582   0.0000   0.0000   0.0000   0.2988
   0.700   0.2237   0.00338   0.00069  -0.0117  0.0065  0.0058  -0.9745   0.0000   0.0000   0.0000   0.2964
   0.800   0.2358   0.00338   0.00069  -0.0118  0.0063  0.0058  -0.9907   0.0000   0.0000   0.0000   0.2942
   0.900   0.2479   0.00339   0.00070  -0.0119  0.0059  0.0058  -1.0071   0.0000   0.0000   0.0000   0.2922
   1.000   0.2600   0.00339   0.00070  -0.0121  0.0056  0.0060  -1.0235   0.0000   0.0000   0.0000   0.2904
   1.100   0.2721   0.00340   0.00070  -0.0122  0.0054  0.0062  -1.0399   0.0000   0.0000   0.0000   0.2888
   1.200   0.2842   0.00340   0.00071  -0.0124  0.0051  0.0065  -1.0564   0.0000   0.0000   0.0000   0.2872
   1.300   0.2963   0.00341   0.00071  -0.0125  0.0051  0.0068  -1.0734   0.0000   0.0000   0.0000   0.2859
   1.400   0.3084   0.00341   0.00072  -0.0127  0.0051  0.0071  -1.0909   0.0000   0.0000   0.0000   0.2846
   1.500   0.3205   0.00342   0.00072  -0.0128  0.0047  0.0074  -1.1085   0.0000   0.0000   0.0000   0.2834
   1.600   0.3326   0.00342   0.00073  -0.0130  0.0044  0.0076  -1.1261   0.0000   0.0000   0.0000   0.2823
   1.700   0.3447   0.00343   0.00073  -0.0131  0.0041  0.0076  -1.1438   0.0000   0.0000   0.0000   0.2812
   1.800   0.3568   0.00344   0.00074  -0.0133  0.0039  0.0077  -1.1615   0.0000   0.0000   0.0000   0.2803
   1.900   0.3689   0.00344   0.00075  -0.0134  0.0038  0.0081  -1.1793   0.0000   0.0000   0.0000   0.2794
   2.000   0.3810   0.00345   0.00075  -0.0136  0.0038  0.0085  -1.1972   0.0000   0.0000   0.0000   0.2785
   2.100   0.3931   0.00346   0.00076  -0.0137  0.0036  0.0088  -1.2151   0.0000   0.0000   0.0000   0.2777
   2.200   0.4052   0.00346   0.00077  -0.0139  0.0033  0.0093  -1.2330   0.0000   0.0000   0.0000   0.2770
   2.300   0.4172   0.00347   0.00077  -0.0140  0.0030  0.0097  -1.2510   0.0000   0.0000   0.0000   0.2762
   2.400   0.4293   0.00348   0.00078  -0.0142  0.0028  0.0097  -1.2691   0.0000   0.0000   0.0000   0.2756
   2.500   0.4414   0.00349   0.00079  -0.0143  0.0028  0.0098  -1.2873   0.0000   0.0000   0.0000   0.2749
   2.600   0.4535   0.00350   0.00080  -0.0145  0.0027  0.0102  -1.3058   0.0000   0.0000   0.0000   0.2743
   2.700   0.4655   0.00351   0.00080  -0.0146  0.0026  0.0106  -1.3250   0.0000   0.0000   0.0000   0.2737
   2.800   0.4776   0.00352   0.00081  -0.0147  0.0024  0.0109  -1.3443   0.0000   0.0000   0.0000   0.2731
   2.900   0.4896   0.00352   0.00082  -0.0149  0.0022  0.0112  -1.3636   0.0000   0.0000   0.0000   0.2726
   3.000   0.5017   0.00353   0.00083  -0.0150  0.0020  0.0117  -1.3830   0.0000   0.0000   0.0000   0.2721
   3.100   0.5137   0.00354   0.00084  -0.0152  0.0019  0.0119  -1.4025   0.0000   0.0000   0.0000   0.2716
   3.200   0.5258   0.00355   0.00085  -0.0153  0.0019  0.0120  -1.4220   0.0000   0.0000   0.0000   0.2711
   3.300   0.5378   0.00356   0.00086  -0.0155  0.0019  0.0121  -1.4416   0.0000   0.0000   0.0000   0.2707
   3.400   0.5499   0.00357   0.00087  -0.0156  0.0017  0.0126  -1.4612   0.0000   0.0000   0.0000   0.2702
   3.500   0.5619   0.00359   0.00088  -0.0158  0.0014  0.0131  -1.4809   0.0000   0.0000   0.0000   0.2698
   3.600   0.5739   0.00360   0.00089  -0.0159  0.0013  0.0136  -1.5007   0.0000   0.0000   0.0000   0.2694
   3.700   0.5860   0.00361   0.00090  -0.0161  0.0011  0.0143  -1.5207   0.0000   0.0000   0.0000   0.2690
   3.800   0.5980   0.00362   0.00091  -0.0162  0.0011  0.0145  -1.5416   0.0000   0.0000   0.0000   0.2686
   3.900   0.6100   0.00363   0.00092  -0.0164  0.0011  0.0145  -1.5626   0.0000   0.0000   0.0000   0.2682
   4.000   0.6220   0.00364   0.00093  -0.0165  0.0011  0.0148  -1.5836   0.0000   0.0000   0.0000   0.2678
   4.100   0.6340   0.00366   0.00094  -0.0167  0.0009  0.0154  -1.6047   0.0000   0.0000   0.0000   0.2675
   4.200   0.6460   0.00367   0.00095  -0.0168  0.0008  0.0158  -1.6259   0.0000   0.0000   0.0000   0.2671
   4.300   0.6580   0.00368   0.00096  -0.0170  0.0007  0.0164  -1.6471   0.0000   0.0000   0.0000   0.2668
   4.400   0.6700   0.00369   0.00098  -0.0171  0.0006  0.0170  -1.6684   0.0000   0.0000   0.0000   0.2664
   4.500   0.6820   0.00371   0.00099  -0.0173  0.0006  0.0172  -1.6898   0.0000   0.0000   0.0000   0.2661
   4.600   0.6940   0.00372   0.00100  -0.0174  0.0006  0.0172  -1.7112   0.0000   0.0000   0.0000   0.2658
   4.700   0.7059   0.00374   0.00101  -0.0176  0.0005  0.0175  -1.7327   0.0000   0.0000   0.0000   0.2655
   4.800   0.7179   0.00375   0.00103  -0.0177  0.0004  0.0181  -1.7550   0.0000   0.0000   0.0000   0.2652
   4.900   0.7299   0.00377   0.00104  -0.0178  0.0003  0.0188  -1.7777   0.0000   0.0000   0.0000   0.2649
   5.000   0.7418   0.00378   0.00105  -0.0180  0.0003  0.0197  -1.8005   0.0000   0.0000   0.0000   0.2646
   5.100   0.7538   0.00380   0.00107  -0.0181  0.0002  0.0202  -1.8233   0.0000   0.0000   0.0000   0.2643
   5.200   0.7657   0.00381   0.00108  -0.0183  0.0002  0.0202  -1.8462   0.0000   0.0000   0.0000   0.2640
   5.300   0.7777   0.00383   0.00110  -0.0184  0.0002  0.0203  -1.8692   0.0000   0.0000   0.0000   0.2637
   5.400   0.7896   0.00384   0.00111  -0.0186  0.0001  0.0210  -1.8923   0.0000   0.0000   0.0000   0.2635
   5.500   0.8015   0.00386   0.00113  -0.0187  0.0001  0.0217  -1.9154   0.0000   0.0000   0.0000   0.2632
   5.600   0.8134   0.00388   0.00114  -0.0189  0.0001  0.0224  -1.9386   0.0000   0.0000   0.0000   0.2629
   6.000   0.8610   0.00395   0.00121  -0.0194  0.0000  0.0237  -2.0333   0.0000   0.0000   0.0000   0.2619
   6.100   0.8729   0.00396   0.00122  -0.0196  0.0000  0.0245  -2.0580   0.0000   0.0000   0.0000   0.2616
   6.200   0.8848   0.00398   0.00124  -0.0197  0.0000  0.0254  -2.0827   0.0000   0.0000   0.0000   0.2614
   6.300   0.8966   0.00400   0.00126  -0.0198  0.0000  0.0266  -2.1076   0.0000   0.0000   0.0000   0.2611
   6.400   0.9085   0.00402   0.00128  -0.0200  0.0000  0.0269  -2.1325   0.0000   0.0000   0.0000   0.2609
   6.500   0.9204   0.00404   0.00129  -0.0201  0.0000  0.0269  -2.1574   0.0000   0.0000   0.0000   0.2606
   6.600   0.9322   0.00406   0.00131  -0.0203  0.0000  0.0272  -2.1825   0.0000   0.0000   0.0000   0.2604
   6.700   0.9440   0.00408   0.00133  -0.0204  0.0000  0.0279  -2.2078   0.0000   0.0000   0.0000   0.2601
   6.800   0.9559   0.00410   0.00135  -0.0205  0.0001  0.0288  -2.2342   0.0000   0.0000   0.0000   0.2599
   6.900   0.9677   0.00412   0.00137  -0.0207  0.0001  0.0300  -2.2607   0.0000   0.0000   0.0000   0.2597
   7.000   0.9795   0.00414   0.00139  -0.0208  0.0001  0.0307  -2.2872   0.0000   0.0000   0.0000   0.2594
   7.200   1.0031   0.00418   0.00143  -0.0211  0.0002  0.0308  -2.3406   0.0000   0.0000   0.0000   0.2590
   7.300   1.0149   0.00420   0.00145  -0.0212  0.0002  0.0313  -2.3674   0.0000   0.0000   0.0000   0.2587
   7.400   1.0267   0.00423   0.00147  -0.0213  0.0002  0.0323  -2.3942   0.0000   0.0000   0.0000   0.2585
   7.500   1.0384   0.00425   0.00149  -0.0215  0.0002  0.0335  -2.4211   0.0000   0.0000   0.0000   0.2583
   7.600   1.0502   0.00427   0.00151  -0.0216  0.0003  0.0349  -2.4486   0.0000   0.0000   0.0000   0.2580
   7.700   1.0619   0.00430   0.00153  -0.0217  0.0004  0.0349  -2.4770   0.0000   0.0000   0.0000   0.2578
   7.800   1.0737   0.00432   0.00156  -0.0218  0.0005  0.0349  -2.5054   0.0000   0.0000   0.0000   0.2576
   7.900   1.0854   0.00434   0.00158  -0.0220  0.0005  0.0352  -2.5339   0.0000   0.0000   0.0000   0.2573
   8.000   1.0971   0.00437   0.00160  -0.0221  0.0005  0.0362  -2.5625   0.0000   0.0000   0.0000   0.2571
   8.100   1.1088   0.00439   0.00162  -0.0222  0.0005  0.0374  -2.5912   0.0000   0.0000   0.0000   0.2569
   8.200   1.1205   0.00442   0.00165  -0.0224  0.0005  0.0388  -2.6203   0.0000   0.0000   0.0000   0.2567
   8.300   1.1322   0.00444   0.00167  -0.0225  0.0006  0.0394  -2.6504   0.0000   0.0000   0.0000   0.2564
   8.500   1.1556   0.00449   0.00172  -0.0227  0.0009  0.0395  -2.7110   0.0000   0.0000   0.0000   0.2560
   8.600   1.1672   0.00452   0.00175  -0.0228  0.0010  0.0401  -2.7414   0.0000   0.0000   0.0000   0.2557
   8.700   1.1789   0.00455   0.00177  -0.0230  0.0011  0.0414  -2.7719   0.0000   0.0000   0.0000   0.2555
   8.900   1.2021   0.00460   0.00182  -0.0232  0.0011  0.0444  -2.8344   0.0000   0.0000   0.0000   0.2551
   9.000   1.2137   0.00463   0.00185  -0.0233  0.0011  0.0444  -2.8666   0.0000   0.0000   0.0000   0.2548
   9.100   1.2254   0.00466   0.00187  -0.0234  0.0011  0.0444  -2.8988   0.0000   0.0000   0.0000   0.2546
   9.200   1.2369   0.00469   0.00190  -0.0235  0.0013  0.0445  -2.9310   0.0000   0.0000   0.0000   0.2544
   9.300   1.2485   0.00472   0.00193  -0.0237  0.0014  0.0456  -2.9647   0.0000   0.0000   0.0000   0.2541
   9.400   1.2601   0.00474   0.00196  -0.0238  0.0016  0.0469  -2.9986   0.0000   0.0000   0.0000   0.2539
   9.500   1.2716   0.00477   0.00199  -0.0239  0.0018  0.0485  -3.0326   0.0000   0.0000   0.0000   0.2537
   9.800   1.3062   0.00486   0.00207  -0.0242  0.0019  0.0499  -3.1357   0.0000   0.0000   0.0000   0.2530
   9.900   1.3177   0.00490   0.00210  -0.0243  0.0019  0.0500  -3.1716   0.0000   0.0000   0.0000   0.2528
  10.000   1.3292   0.00493   0.00213  -0.0244  0.0019  0.0500  -3.2084   0.0000   0.0000   0.0000   0.2525
  10.100   1.3406   0.00496   0.00217  -0.0245  0.0022  0.0500  -3.2459   0.0000   0.0000   0.0000   0.2523
  10.200   1.3521   0.00499   0.00220  -0.0246  0.0024  0.0500  -3.2839   0.0000   0.0000   0.0000   0.2521
  10.300   1.3636   0.00503   0.00223  -0.0247  0.0026  0.0500  -3.3232   0.0000   0.0000   0.0000   0.2518
  10.400   1.3750   0.00506   0.00226  -0.0248  0.0028  0.0500  -3.3628   0.0000   0.0000   0.0000   0.2516
  10.500   1.3864   0.00509   0.00229  -0.0249  0.0030  0.0500  -3.4024   0.0000   0.0000   0.0000   0.2513
  10.600   1.3978   0.00513   0.00233  -0.0250  0.0030  0.0500  -3.4428   0.0000   0.0000   0.0000   0.2511
  10.700   1.4092   0.00516   0.00236  -0.0251  0.0030  0.0500  -3.4860   0.0000   0.0000   0.0000   0.2509
  10.800   1.4206   0.00520   0.00239  -0.0252  0.0030  0.0500  -3.5294   0.0000   0.0000   0.0000   0.2506
  10.900   1.4320   0.00523   0.00242  -0.0253  0.0030  0.0500  -3.5729   0.0000   0.0000   0.0000   0.2504
  11.000   1.4433   0.00527   0.00246  -0.0254  0.0032  0.0500  -3.6165   0.0000   0.0000   0.0000   0.2502
  11.100   1.4546   0.00531   0.00250  -0.0255  0.0035  0.0500  -3.6622   0.0000   0.0000   0.0000   0.2499
  11.200   1.4659   0.00534   0.00253  -0.0255  0.0038  0.0500  -3.7098   0.0000   0.0000   0.0000   0.2497
  11.300   1.4772   0.00538   0.00257  -0.0256  0.0041  0.0500  -3.7575   0.0000   0.0000   0.0000   0.2494
  11.400   1.4885   0.00542   0.00261  -0.0257  0.0043  0.0500  -3.8065   0.0000   0.0000   0.0000   0.2492
  11.500   1.4998   0.00546   0.00264  -0.0258  0.0043  0.0500  -3.8586   0.0000   0.0000   0.0000   0.2489
  11.600   1.5110   0.00550   0.00268  -0.0259  0.0043  0.0500  -3.9109   0.0000   0.0000   0.0000   0.2487
  11.700   1.5222   0.00554   0.00272  -0.0259  0.0043  0.0500  -3.9634   0.0000   0.0000   0.0000   0.2484
  11.800   1.5334   0.00558   0.00276  -0.0260  0.0044  0.0500  -4.0161   0.0000   0.0000   0.0000   0.2482
  11.900   1.5446   0.00562   0.00280  -0.0261  0.0048  0.0500  -4.0690   0.0000   0.0000   0.0000   0.2479
  12.000   1.5558   0.00566   0.00284  -0.0262  0.0052  0.0500  -4.1222   0.0000   0.0000   0.0000   0.2477
  12.100   1.5669   0.00570   0.00288  -0.0262  0.0055  0.0500  -4.1776   0.0000   0.0000   0.0000   0.2474
  12.200   1.5781   0.00574   0.00292  -0.0263  0.0058  0.0500  -4.2334   0.0000   0.0000   0.0000   0.2472
  12.300   1.5892   0.00578   0.00296  -0.0263  0.0058  0.0500  -4.2903   0.0000   0.0000   0.0000   0.2469
  12.400   1.6003   0.00583   0.00300  -0.0264  0.0058  0.0500  -4.3487   0.0000   0.0000   0.0000   0.2467
  12.500   1.6114   0.00587   0.00304  -0.0265  0.0059  0.0500  -4.4082   0.0000   0.0000   0.0000   0.2464
  12.600   1.6225   0.00591   0.00308  -0.0265  0.0059  0.0500  -4.4696   0.0000   0.0000   0.0000   0.2462
  12.700   1.6335   0.00596   0.00313  -0.0266  0.0061  0.0500  -4.5311   0.0000   0.0000   0.0000   0.2459
  12.800   1.6445   0.00600   0.00318  -0.0266  0.0067  0.0500  -4.5929   0.0000   0.0000   0.0000   0.2456
  12.900   1.6555   0.00605   0.00322  -0.0267  0.0071  0.0500  -4.6551   0.0000   0.0000   0.0000   0.2454
  13.000   1.6665   0.00610   0.00326  -0.0267  0.0075  0.0500  -4.7175   0.0000   0.0000   0.0000   0.2451
  13.100   1.6774   0.00614   0.00331  -0.0268  0.0077  0.0500  -4.7802   0.0000   0.0000   0.0000   0.2448
  13.300   1.6993   0.00624   0.00340  -0.0268  0.0077  0.0500  -4.9063   0.0000   0.0000   0.0000   0.2443
  13.400   1.7102   0.00628   0.00345  -0.0269  0.0077  0.0500  -4.9697   0.0000   0.0000   0.0000   0.2440
  13.500   1.7210   0.00634   0.00350  -0.0269  0.0081  0.0500  -5.0352   0.0000   0.0000   0.0000   0.2438
  13.600   1.7319   0.00639   0.00355  -0.0269  0.0086  0.0500  -5.1043   0.0000   0.0000   0.0000   0.2435
  13.700   1.7427   0.00643   0.00360  -0.0270  0.0091  0.0500  -5.1738   0.0000   0.0000   0.0000   0.2432
  13.800   1.7535   0.00649   0.00365  -0.0270  0.0095  0.0500  -5.2435   0.0000   0.0000   0.0000   0.2430
  13.900   1.7643   0.00654   0.00370  -0.0270  0.0097  0.0500  -5.3136   0.0000   0.0000   0.0000   0.2427
  14.000   1.7750   0.00659   0.00375  -0.0270  0.0097  0.0500  -5.3839   0.0000   0.0000   0.0000   0.2424
  14.100   1.7858   0.00664   0.00380  -0.0271  0.0097  0.0500  -5.4545   0.0000   0.0000   0.0000   0.2421
  14.200   1.7965   0.00669   0.00385  -0.0271  0.0097  0.0500  -5.5254   0.0000   0.0000   0.0000   0.2418
  14.300   1.8071   0.00675   0.00391  -0.0271  0.0103  0.0500  -5.5965   0.0000   0.0000   0.0000   0.2415
  14.400   1.8178   0.00680   0.00396  -0.0271  0.0110  0.0500  -5.6679   0.0000   0.0000   0.0000   0.2413
  14.500   1.8284   0.00686   0.00402  -0.0271  0.0115  0.0500  -5.7396   0.0000   0.0000   0.0000   0.2410
  14.600   1.8390   0.00691   0.00407  -0.0271  0.0120  0.0500  -5.8116   0.0000   0.0000   0.0000   0.2407
  14.800   1.8601   0.00703   0.00418  -0.0271  0.0120  0.0996  -5.9564   0.0000   0.0000   0.0000   0.2401
  14.900   1.8706   0.00708   0.00424  -0.0270  0.0120  0.0996  -6.0292   0.0000   0.0000   0.0000   0.2398
  15.000   1.8810   0.00714   0.00430  -0.0270  0.0127  0.0996  -6.1021   0.0000   0.0000   0.0000   0.2395


