xflr5 v6.61

 Calculated polar for: NACA 0012

 1 1 Reynolds number fixed          Mach number fixed         

 xtrf =   0.050 (top)        0.050 (bottom)
 Mach =   0.000     Re =    12.814 e 6     Ncrit =   9.000

  alpha     CL        CD       CDp       Cm    Top Xtr Bot Xtr   Cpmin    Chinge    XCp    
 ------- -------- --------- --------- -------- ------- ------- -------- --------- ---------
  -5.000  -0.5756   0.00747   0.00164   0.0022  0.0500  0.0467  -1.9846   0.0000   0.0000   0.0000   0.2477
  -4.900  -0.5643   0.00742   0.00161   0.0022  0.0500  0.0498  -1.9317   0.0000   0.0000   0.0000   0.2479
  -4.800  -0.5529   0.00740   0.00158   0.0021  0.0500  0.0500  -1.8787   0.0000   0.0000   0.0000   0.2479
  -4.700  -0.5415   0.00739   0.00156   0.0021  0.0500  0.0500  -1.8260   0.0000   0.0000   0.0000   0.2480
  -4.600  -0.5300   0.00737   0.00154   0.0021  0.0500  0.0500  -1.7738   0.0000   0.0000   0.0000   0.2481
  -4.500  -0.5185   0.00736   0.00152   0.0020  0.0500  0.0500  -1.7221   0.0000   0.0000   0.0000   0.2482
  -4.400  -0.5071   0.00734   0.00150   0.0020  0.0500  0.0500  -1.6736   0.0000   0.0000   0.0000   0.2483
  -4.300  -0.4956   0.00733   0.00148   0.0020  0.0500  0.0500  -1.6261   0.0000   0.0000   0.0000   0.2483
  -4.200  -0.4841   0.00731   0.00147   0.0019  0.0500  0.0500  -1.5790   0.0000   0.0000   0.0000   0.2484
  -4.100  -0.4727   0.00730   0.00145   0.0019  0.0500  0.0500  -1.5323   0.0000   0.0000   0.0000   0.2485
  -4.000  -0.4612   0.00728   0.00143   0.0018  0.0500  0.0500  -1.4860   0.0000   0.0000   0.0000   0.2485
  -3.900  -0.4497   0.00727   0.00141   0.0018  0.0500  0.0500  -1.4412   0.0000   0.0000   0.0000   0.2486
  -3.800  -0.4382   0.00726   0.00140   0.0018  0.0500  0.0500  -1.3987   0.0000   0.0000   0.0000   0.2487
  -3.700  -0.4267   0.00724   0.00138   0.0017  0.0500  0.0500  -1.3565   0.0000   0.0000   0.0000   0.2487
  -3.600  -0.4153   0.00723   0.00136   0.0017  0.0500  0.0500  -1.3148   0.0000   0.0000   0.0000   0.2488
  -3.500  -0.4038   0.00722   0.00135   0.0016  0.0500  0.0500  -1.2733   0.0000   0.0000   0.0000   0.2489
  -3.400  -0.3923   0.00721   0.00133   0.0016  0.0500  0.0500  -1.2323   0.0000   0.0000   0.0000   0.2489
  -3.300  -0.3808   0.00720   0.00132   0.0016  0.0500  0.0500  -1.1940   0.0000   0.0000   0.0000   0.2490
  -3.200  -0.3692   0.00719   0.00131   0.0015  0.0500  0.0500  -1.1563   0.0000   0.0000   0.0000   0.2490
  -3.100  -0.3577   0.00718   0.00129   0.0015  0.0500  0.0500  -1.1189   0.0000   0.0000   0.0000   0.2491
  -3.000  -0.3462   0.00717   0.00128   0.0014  0.0500  0.0500  -1.0833   0.0000   0.0000   0.0000   0.2491
  -2.900  -0.3347   0.00716   0.00127   0.0014  0.0500  0.0500  -1.0490   0.0000   0.0000   0.0000   0.2492
  -2.800  -0.3232   0.00715   0.00126   0.0013  0.0500  0.0500  -1.0149   0.0000   0.0000   0.0000   0.2492
  -2.700  -0.3117   0.00714   0.00124   0.0013  0.0500  0.0500  -0.9811   0.0000   0.0000   0.0000   0.2493
  -2.600  -0.3002   0.00713   0.00123   0.0012  0.0500  0.0500  -0.9497   0.0000   0.0000   0.0000   0.2493
  -2.500  -0.2886   0.00712   0.00122   0.0012  0.0500  0.0500  -0.9187   0.0000   0.0000   0.0000   0.2494
  -2.400  -0.2771   0.00711   0.00121   0.0012  0.0500  0.0500  -0.8879   0.0000   0.0000   0.0000   0.2494
  -2.300  -0.2656   0.00710   0.00120   0.0011  0.0500  0.0500  -0.8594   0.0000   0.0000   0.0000   0.2494
  -2.200  -0.2540   0.00710   0.00119   0.0011  0.0500  0.0500  -0.8311   0.0000   0.0000   0.0000   0.2495
  -2.100  -0.2425   0.00709   0.00118   0.0010  0.0500  0.0500  -0.8034   0.0000   0.0000   0.0000   0.2495
  -2.000  -0.2310   0.00708   0.00117   0.0010  0.0500  0.0500  -0.7774   0.0000   0.0000   0.0000   0.2496
  -1.900  -0.2194   0.00708   0.00117   0.0009  0.0500  0.0500  -0.7516   0.0000   0.0000   0.0000   0.2496
  -1.800  -0.2079   0.00707   0.00116   0.0009  0.0500  0.0500  -0.7266   0.0000   0.0000   0.0000   0.2496
  -1.700  -0.1964   0.00706   0.00115   0.0008  0.0500  0.0500  -0.7045   0.0000   0.0000   0.0000   0.2496
  -1.600  -0.1848   0.00706   0.00114   0.0008  0.0500  0.0500  -0.6825   0.0000   0.0000   0.0000   0.2497
  -1.500  -0.1733   0.00705   0.00114   0.0007  0.0500  0.0500  -0.6607   0.0000   0.0000   0.0000   0.2497
  -1.400  -0.1617   0.00705   0.00113   0.0007  0.0500  0.0500  -0.6390   0.0000   0.0000   0.0000   0.2497
  -1.300  -0.1502   0.00704   0.00113   0.0006  0.0500  0.0500  -0.6175   0.0000   0.0000   0.0000   0.2497
  -1.200  -0.1386   0.00704   0.00112   0.0006  0.0500  0.0500  -0.5960   0.0000   0.0000   0.0000   0.2498
  -1.100  -0.1271   0.00704   0.00112   0.0005  0.0500  0.0500  -0.5748   0.0000   0.0000   0.0000   0.2498
  -1.000  -0.1155   0.00703   0.00111   0.0005  0.0500  0.0500  -0.5536   0.0000   0.0000   0.0000   0.2498
  -0.900  -0.1040   0.00703   0.00111   0.0004  0.0500  0.0500  -0.5374   0.0000   0.0000   0.0000   0.2498
  -0.800  -0.0924   0.00703   0.00110   0.0004  0.0500  0.0500  -0.5220   0.0000   0.0000   0.0000   0.2498
  -0.700  -0.0809   0.00702   0.00110   0.0003  0.0500  0.0500  -0.5067   0.0000   0.0000   0.0000   0.2498
  -0.600  -0.0693   0.00702   0.00110   0.0003  0.0500  0.0500  -0.4914   0.0000   0.0000   0.0000   0.2499
  -0.500  -0.0578   0.00702   0.00109   0.0002  0.0500  0.0500  -0.4768   0.0000   0.0000   0.0000   0.2499
  -0.400  -0.0462   0.00702   0.00109   0.0002  0.0500  0.0500  -0.4627   0.0000   0.0000   0.0000   0.2499
  -0.300  -0.0347   0.00702   0.00109   0.0001  0.0500  0.0500  -0.4487   0.0000   0.0000   0.0000   0.2499
  -0.200  -0.0231   0.00702   0.00109   0.0001  0.0500  0.0500  -0.4354   0.0000   0.0000   0.0000   0.2499
  -0.100  -0.0116   0.00702   0.00109   0.0000  0.0500  0.0500  -0.4225   0.0000   0.0000   0.0000   0.2499
   0.000  -0.0000   0.00702   0.00109   0.0000  0.0500  0.0500  -0.4102   0.0000   0.0000   0.0000   0.9073
   0.100   0.0116   0.00702   0.00109  -0.0000  0.0500  0.0500  -0.4225   0.0000   0.0000   0.0000   0.2499
   0.200   0.0231   0.00702   0.00109  -0.0001  0.0500  0.0500  -0.4354   0.0000   0.0000   0.0000   0.2499
   0.300   0.0347   0.00702   0.00109  -0.0001  0.0500  0.0500  -0.4487   0.0000   0.0000   0.0000   0.2499
   0.400   0.0462   0.00702   0.00109  -0.0002  0.0500  0.0500  -0.4627   0.0000   0.0000   0.0000   0.2499
   0.500   0.0578   0.00702   0.00109  -0.0002  0.0500  0.0500  -0.4768   0.0000   0.0000   0.0000   0.2499
   0.600   0.0693   0.00702   0.00110  -0.0003  0.0500  0.0500  -0.4914   0.0000   0.0000   0.0000   0.2499
   0.700   0.0809   0.00702   0.00110  -0.0003  0.0500  0.0500  -0.5067   0.0000   0.0000   0.0000   0.2498
   0.800   0.0924   0.00703   0.00110  -0.0004  0.0500  0.0500  -0.5220   0.0000   0.0000   0.0000   0.2498
   0.900   0.1040   0.00703   0.00111  -0.0004  0.0500  0.0500  -0.5374   0.0000   0.0000   0.0000   0.2498
   1.000   0.1155   0.00703   0.00111  -0.0005  0.0500  0.0500  -0.5535   0.0000   0.0000   0.0000   0.2498
   1.100   0.1271   0.00704   0.00112  -0.0005  0.0500  0.0500  -0.5747   0.0000   0.0000   0.0000   0.2498
   1.200   0.1386   0.00704   0.00112  -0.0006  0.0500  0.0500  -0.5960   0.0000   0.0000   0.0000   0.2498
   1.300   0.1502   0.00704   0.00113  -0.0006  0.0500  0.0500  -0.6174   0.0000   0.0000   0.0000   0.2497
   1.400   0.1617   0.00705   0.00113  -0.0007  0.0500  0.0500  -0.6389   0.0000   0.0000   0.0000   0.2497
   1.500   0.1733   0.00705   0.00114  -0.0007  0.0500  0.0500  -0.6606   0.0000   0.0000   0.0000   0.2497
   1.600   0.1848   0.00706   0.00114  -0.0008  0.0500  0.0500  -0.6825   0.0000   0.0000   0.0000   0.2497
   1.700   0.1964   0.00706   0.00115  -0.0008  0.0500  0.0500  -0.7044   0.0000   0.0000   0.0000   0.2496
   1.800   0.2079   0.00707   0.00116  -0.0009  0.0500  0.0500  -0.7269   0.0000   0.0000   0.0000   0.2496
   1.900   0.2194   0.00708   0.00117  -0.0009  0.0500  0.0500  -0.7514   0.0000   0.0000   0.0000   0.2496
   2.000   0.2310   0.00708   0.00117  -0.0010  0.0500  0.0500  -0.7773   0.0000   0.0000   0.0000   0.2496
   2.100   0.2425   0.00709   0.00118  -0.0010  0.0500  0.0500  -0.8033   0.0000   0.0000   0.0000   0.2495
   2.200   0.2540   0.00710   0.00119  -0.0011  0.0500  0.0500  -0.8311   0.0000   0.0000   0.0000   0.2495
   2.300   0.2656   0.00710   0.00120  -0.0011  0.0500  0.0500  -0.8594   0.0000   0.0000   0.0000   0.2494
   2.400   0.2771   0.00711   0.00121  -0.0012  0.0500  0.0500  -0.8879   0.0000   0.0000   0.0000   0.2494
   2.500   0.2886   0.00712   0.00122  -0.0012  0.0500  0.0500  -0.9187   0.0000   0.0000   0.0000   0.2494
   2.600   0.3002   0.00713   0.00123  -0.0012  0.0500  0.0500  -0.9497   0.0000   0.0000   0.0000   0.2493
   2.700   0.3117   0.00714   0.00124  -0.0013  0.0500  0.0500  -0.9811   0.0000   0.0000   0.0000   0.2493
   2.800   0.3232   0.00715   0.00126  -0.0013  0.0500  0.0500  -1.0149   0.0000   0.0000   0.0000   0.2492
   2.900   0.3347   0.00716   0.00127  -0.0014  0.0500  0.0500  -1.0490   0.0000   0.0000   0.0000   0.2492
   3.000   0.3462   0.00717   0.00128  -0.0014  0.0500  0.0500  -1.0833   0.0000   0.0000   0.0000   0.2491
   3.100   0.3577   0.00718   0.00129  -0.0015  0.0500  0.0500  -1.1189   0.0000   0.0000   0.0000   0.2491
   3.200   0.3693   0.00719   0.00131  -0.0015  0.0500  0.0500  -1.1563   0.0000   0.0000   0.0000   0.2490
   3.300   0.3808   0.00720   0.00132  -0.0016  0.0500  0.0500  -1.1940   0.0000   0.0000   0.0000   0.2490
   3.400   0.3923   0.00721   0.00133  -0.0016  0.0500  0.0500  -1.2323   0.0000   0.0000   0.0000   0.2489
   3.500   0.4038   0.00722   0.00135  -0.0016  0.0500  0.0500  -1.2733   0.0000   0.0000   0.0000   0.2489
   3.600   0.4153   0.00723   0.00136  -0.0017  0.0500  0.0500  -1.3148   0.0000   0.0000   0.0000   0.2488
   3.700   0.4268   0.00724   0.00138  -0.0017  0.0500  0.0500  -1.3566   0.0000   0.0000   0.0000   0.2487
   3.800   0.4382   0.00726   0.00140  -0.0018  0.0500  0.0500  -1.3987   0.0000   0.0000   0.0000   0.2487
   3.900   0.4497   0.00727   0.00141  -0.0018  0.0500  0.0500  -1.4412   0.0000   0.0000   0.0000   0.2486
   4.000   0.4612   0.00728   0.00143  -0.0018  0.0500  0.0500  -1.4860   0.0000   0.0000   0.0000   0.2485
   4.100   0.4727   0.00730   0.00145  -0.0019  0.0500  0.0500  -1.5323   0.0000   0.0000   0.0000   0.2485
   4.200   0.4842   0.00731   0.00147  -0.0019  0.0500  0.0500  -1.5790   0.0000   0.0000   0.0000   0.2484
   4.300   0.4956   0.00733   0.00148  -0.0020  0.0500  0.0500  -1.6261   0.0000   0.0000   0.0000   0.2483
   4.400   0.5071   0.00734   0.00150  -0.0020  0.0500  0.0500  -1.6736   0.0000   0.0000   0.0000   0.2483
   4.500   0.5186   0.00736   0.00152  -0.0020  0.0500  0.0500  -1.7221   0.0000   0.0000   0.0000   0.2482
   4.600   0.5300   0.00737   0.00154  -0.0021  0.0500  0.0500  -1.7739   0.0000   0.0000   0.0000   0.2481
   4.700   0.5415   0.00739   0.00156  -0.0021  0.0500  0.0500  -1.8261   0.0000   0.0000   0.0000   0.2480
   4.800   0.5529   0.00740   0.00158  -0.0021  0.0500  0.0500  -1.8787   0.0000   0.0000   0.0000   0.2480
   4.900   0.5643   0.00742   0.00161  -0.0022  0.0498  0.0500  -1.9318   0.0000   0.0000   0.0000   0.2479
   5.000   0.5756   0.00747   0.00164  -0.0022  0.0467  0.0500  -1.9846   0.0000   0.0000   0.0000   0.2477
   5.100   0.5869   0.00749   0.00167  -0.0022  0.0455  0.0500  -2.0384   0.0000   0.0000   0.0000   0.2476
   5.200   0.5982   0.00753   0.00170  -0.0022  0.0441  0.0500  -2.0932   0.0000   0.0000   0.0000   0.2475
   5.300   0.6094   0.00758   0.00174  -0.0022  0.0422  0.0500  -2.1512   0.0000   0.0000   0.0000   0.2474
   5.400   0.6207   0.00762   0.00178  -0.0022  0.0400  0.0500  -2.2098   0.0000   0.0000   0.0000   0.2472
   5.500   0.6320   0.00765   0.00181  -0.0022  0.0391  0.0500  -2.2694   0.0000   0.0000   0.0000   0.2471
   5.600   0.6433   0.00768   0.00184  -0.0023  0.0384  0.0500  -2.3295   0.0000   0.0000   0.0000   0.2470
   5.700   0.6546   0.00772   0.00188  -0.0023  0.0372  0.0500  -2.3898   0.0000   0.0000   0.0000   0.2469
   5.800   0.6658   0.00777   0.00192  -0.0023  0.0357  0.0500  -2.4503   0.0000   0.0000   0.0000   0.2468
   5.900   0.6770   0.00781   0.00196  -0.0023  0.0337  0.0500  -2.5115   0.0000   0.0000   0.0000   0.2466
   6.000   0.6883   0.00784   0.00199  -0.0023  0.0331  0.0500  -2.5736   0.0000   0.0000   0.0000   0.2465
   6.100   0.6995   0.00788   0.00203  -0.0023  0.0323  0.0500  -2.6361   0.0000   0.0000   0.0000   0.2464
   6.200   0.7107   0.00793   0.00207  -0.0023  0.0312  0.0500  -2.7030   0.0000   0.0000   0.0000   0.2462
   6.300   0.7218   0.00798   0.00212  -0.0023  0.0299  0.0500  -2.7704   0.0000   0.0000   0.0000   0.2461
   6.400   0.7330   0.00802   0.00216  -0.0023  0.0286  0.0500  -2.8386   0.0000   0.0000   0.0000   0.2460
   6.500   0.7443   0.00805   0.00219  -0.0023  0.0282  0.0500  -2.9078   0.0000   0.0000   0.0000   0.2458
   6.600   0.7555   0.00809   0.00223  -0.0023  0.0278  0.0500  -2.9776   0.0000   0.0000   0.0000   0.2457
   6.700   0.7667   0.00813   0.00227  -0.0023  0.0271  0.0500  -3.0477   0.0000   0.0000   0.0000   0.2456
   6.800   0.7778   0.00818   0.00232  -0.0023  0.0263  0.0500  -3.1180   0.0000   0.0000   0.0000   0.2454
   6.900   0.7889   0.00824   0.00237  -0.0023  0.0253  0.0500  -3.1888   0.0000   0.0000   0.0000   0.2453
   7.000   0.8000   0.00828   0.00242  -0.0023  0.0242  0.0500  -3.2603   0.0000   0.0000   0.0000   0.2451
   7.100   0.8112   0.00832   0.00246  -0.0023  0.0238  0.0500  -3.3329   0.0000   0.0000   0.0000   0.2450
   7.200   0.8224   0.00836   0.00250  -0.0023  0.0235  0.0500  -3.4060   0.0000   0.0000   0.0000   0.2449
   7.300   0.8335   0.00841   0.00255  -0.0023  0.0229  0.0500  -3.4794   0.0000   0.0000   0.0000   0.2447
   7.400   0.8445   0.00846   0.00260  -0.0022  0.0222  0.0500  -3.5544   0.0000   0.0000   0.0000   0.2446
   7.500   0.8556   0.00852   0.00266  -0.0022  0.0215  0.0500  -3.6334   0.0000   0.0000   0.0000   0.2444
   7.600   0.8666   0.00857   0.00271  -0.0022  0.0207  0.0500  -3.7131   0.0000   0.0000   0.0000   0.2443
   7.700   0.8777   0.00862   0.00276  -0.0022  0.0201  0.0500  -3.7937   0.0000   0.0000   0.0000   0.2441
   7.800   0.8888   0.00866   0.00280  -0.0022  0.0200  0.0500  -3.8753   0.0000   0.0000   0.0000   0.2440
   7.900   0.8999   0.00871   0.00285  -0.0022  0.0198  0.0500  -3.9574   0.0000   0.0000   0.0000   0.2438
   8.000   0.9110   0.00875   0.00290  -0.0021  0.0195  0.0500  -4.0401   0.0000   0.0000   0.0000   0.2437
   8.100   0.9220   0.00881   0.00296  -0.0021  0.0191  0.0500  -4.1231   0.0000   0.0000   0.0000   0.2435
   8.200   0.9329   0.00887   0.00302  -0.0021  0.0186  0.0500  -4.2065   0.0000   0.0000   0.0000   0.2433
   8.300   0.9438   0.00893   0.00308  -0.0021  0.0181  0.0500  -4.2903   0.0000   0.0000   0.0000   0.2432
   8.400   0.9548   0.00899   0.00314  -0.0020  0.0174  0.0500  -4.3747   0.0000   0.0000   0.0000   0.2430
   8.500   0.9657   0.00905   0.00320  -0.0020  0.0169  0.0500  -4.4599   0.0000   0.0000   0.0000   0.2428
   8.600   0.9767   0.00910   0.00325  -0.0020  0.0167  0.0500  -4.5463   0.0000   0.0000   0.0000   0.2427
   8.700   0.9877   0.00914   0.00330  -0.0020  0.0166  0.0500  -4.6333   0.0000   0.0000   0.0000   0.2425
   8.800   0.9987   0.00920   0.00336  -0.0019  0.0164  0.0500  -4.7209   0.0000   0.0000   0.0000   0.2424
   8.900   1.0096   0.00925   0.00342  -0.0019  0.0161  0.0500  -4.8089   0.0000   0.0000   0.0000   0.2422
   9.000   1.0205   0.00932   0.00348  -0.0019  0.0158  0.0500  -4.8972   0.0000   0.0000   0.0000   0.2420
   9.100   1.0313   0.00938   0.00355  -0.0018  0.0154  0.0500  -4.9859   0.0000   0.0000   0.0000   0.2418
   9.200   1.0421   0.00945   0.00362  -0.0018  0.0150  0.0500  -5.0784   0.0000   0.0000   0.0000   0.2416
   9.300   1.0528   0.00952   0.00369  -0.0017  0.0146  0.0500  -5.1735   0.0000   0.0000   0.0000   0.2414
   9.400   1.0636   0.00959   0.00376  -0.0017  0.0141  0.0500  -5.2692   0.0000   0.0000   0.0000   0.2413
   9.500   1.0744   0.00966   0.00383  -0.0016  0.0138  0.0500  -5.3658   0.0000   0.0000   0.0000   0.2411
   9.600   1.0853   0.00971   0.00389  -0.0016  0.0137  0.0500  -5.4639   0.0000   0.0000   0.0000   0.2409
   9.700   1.0961   0.00977   0.00395  -0.0015  0.0137  0.0500  -5.5625   0.0000   0.0000   0.0000   0.2407
   9.800   1.1070   0.00983   0.00402  -0.0015  0.0136  0.0500  -5.6617   0.0000   0.0000   0.0000   0.2405
   9.900   1.1177   0.00989   0.00408  -0.0014  0.0134  0.0500  -5.7614   0.0000   0.0000   0.0000   0.2404
  10.000   1.1285   0.00995   0.00415  -0.0014  0.0133  0.0500  -5.8617   0.0000   0.0000   0.0000   0.2402
  10.100   1.1392   0.01002   0.00422  -0.0013  0.0131  0.0500  -5.9624   0.0000   0.0000   0.0000   0.2400
  10.200   1.1498   0.01009   0.00430  -0.0013  0.0129  0.0500  -6.0635   0.0000   0.0000   0.0000   0.2398
  10.300   1.1604   0.01017   0.00438  -0.0012  0.0126  0.0500  -6.1649   0.0000   0.0000   0.0000   0.2396
  10.400   1.1710   0.01025   0.00446  -0.0011  0.0124  0.0500  -6.2667   0.0000   0.0000   0.0000   0.2393
  10.500   1.1815   0.01034   0.00455  -0.0010  0.0121  0.0500  -6.3690   0.0000   0.0000   0.0000   0.2391
  10.600   1.1920   0.01042   0.00463  -0.0009  0.0117  0.0500  -6.4719   0.0000   0.0000   0.0000   0.2389
  10.700   1.2026   0.01050   0.00472  -0.0009  0.0114  0.0500  -6.5754   0.0000   0.0000   0.0000   0.2387
  10.800   1.2131   0.01058   0.00480  -0.0008  0.0111  0.0500  -6.6795   0.0000   0.0000   0.0000   0.2385
  10.900   1.2237   0.01064   0.00487  -0.0007  0.0111  0.0500  -6.7856   0.0000   0.0000   0.0000   0.2383
  11.000   1.2343   0.01071   0.00495  -0.0006  0.0111  0.0500  -6.8923   0.0000   0.0000   0.0000   0.2381
  11.100   1.2449   0.01078   0.00502  -0.0006  0.0110  0.0500  -6.9995   0.0000   0.0000   0.0000   0.2379
  11.200   1.2554   0.01085   0.00510  -0.0005  0.0110  0.0500  -7.1072   0.0000   0.0000   0.0000   0.2377
  11.300   1.2659   0.01093   0.00518  -0.0004  0.0109  0.0500  -7.2153   0.0000   0.0000   0.0000   0.2374
  11.400   1.2763   0.01101   0.00527  -0.0003  0.0108  0.0500  -7.3238   0.0000   0.0000   0.0000   0.2372
  11.500   1.2867   0.01109   0.00535  -0.0002  0.0106  0.0500  -7.4328   0.0000   0.0000   0.0000   0.2370
  11.600   1.2971   0.01118   0.00544  -0.0001  0.0105  0.0500  -7.5420   0.0000   0.0000   0.0000   0.2368
  11.700   1.3074   0.01127   0.00554  -0.0000  0.0104  0.0500  -7.6516   0.0000   0.0000   0.0000   0.2365
  11.800   1.3176   0.01136   0.00564   0.0001  0.0102  0.0500  -7.7625   0.0000   0.0000   0.0000   0.2363
  11.900   1.3278   0.01146   0.00574   0.0002  0.0100  0.0500  -7.8785   0.0000   0.0000   0.0000   0.2360
  12.000   1.3379   0.01156   0.00584   0.0004  0.0098  0.0500  -7.9949   0.0000   0.0000   0.0000   0.2358
  12.100   1.3481   0.01166   0.00594   0.0005  0.0096  0.0500  -8.1118   0.0000   0.0000   0.0000   0.2355
  12.200   1.3582   0.01176   0.00605   0.0006  0.0094  0.0500  -8.2293   0.0000   0.0000   0.0000   0.2353
  12.300   1.3683   0.01186   0.00615   0.0008  0.0092  0.0500  -8.3474   0.0000   0.0000   0.0000   0.2350
  12.400   1.3783   0.01196   0.00626   0.0009  0.0090  0.0500  -8.4659   0.0000   0.0000   0.0000   0.2348
  12.500   1.3884   0.01206   0.00637   0.0010  0.0088  0.0500  -8.5853   0.0000   0.0000   0.0000   0.2345
  12.600   1.3986   0.01215   0.00646   0.0012  0.0088  0.0500  -8.7068   0.0000   0.0000   0.0000   0.2343
  12.700   1.4087   0.01223   0.00656   0.0013  0.0088  0.0500  -8.8288   0.0000   0.0000   0.0000   0.2340
  12.800   1.4188   0.01232   0.00665   0.0014  0.0088  0.0500  -8.9513   0.0000   0.0000   0.0000   0.2338
  12.900   1.4289   0.01241   0.00675   0.0015  0.0088  0.0500  -9.0743   0.0000   0.0000   0.0000   0.2335
  13.000   1.4389   0.01250   0.00685   0.0017  0.0087  0.0500  -9.1978   0.0000   0.0000   0.0000   0.2333
  13.100   1.4489   0.01260   0.00695   0.0018  0.0087  0.0500  -9.3218   0.0000   0.0000   0.0000   0.2330
  13.200   1.4589   0.01269   0.00705   0.0020  0.0087  0.0500  -9.4461   0.0000   0.0000   0.0000   0.2328
  13.300   1.4688   0.01279   0.00716   0.0021  0.0086  0.0500  -9.5709   0.0000   0.0000   0.0000   0.2325
  13.400   1.4786   0.01289   0.00727   0.0023  0.0086  0.0500  -9.6960   0.0000   0.0000   0.0000   0.2322
  13.500   1.4884   0.01300   0.00738   0.0025  0.0085  0.0500  -9.8214   0.0000   0.0000   0.0000   0.2320
  13.600   1.4982   0.01311   0.00749   0.0026  0.0084  0.0500  -9.9472   0.0000   0.0000   0.0000   0.2317
  13.700   1.5078   0.01322   0.00761   0.0028  0.0084  0.0500  -10.0731   0.0000   0.0000   0.0000   0.2314


