xflr5 v6.61

 Calculated polar for: NACA 0012

 1 1 Reynolds number fixed          Mach number fixed         

 xtrf =   0.050 (top)        0.050 (bottom)
 Mach =   0.000     Re =    10.150 e 6     Ncrit =   9.000

  alpha     CL        CD       CDp       Cm    Top Xtr Bot Xtr   Cpmin    Chinge    XCp    
 ------- -------- --------- --------- -------- ------- ------- -------- --------- ---------
  -5.000  -0.5746   0.00772   0.00171   0.0020  0.0500  0.0500  -1.9819   0.0000   0.0000   0.0000   0.2474
  -4.900  -0.5632   0.00770   0.00169   0.0020  0.0500  0.0500  -1.9284   0.0000   0.0000   0.0000   0.2475
  -4.800  -0.5518   0.00769   0.00167   0.0019  0.0500  0.0500  -1.8754   0.0000   0.0000   0.0000   0.2476
  -4.700  -0.5403   0.00767   0.00164   0.0019  0.0500  0.0500  -1.8229   0.0000   0.0000   0.0000   0.2477
  -4.600  -0.5289   0.00765   0.00162   0.0019  0.0500  0.0500  -1.7707   0.0000   0.0000   0.0000   0.2478
  -4.500  -0.5175   0.00764   0.00160   0.0019  0.0500  0.0500  -1.7191   0.0000   0.0000   0.0000   0.2478
  -4.400  -0.5061   0.00762   0.00158   0.0018  0.0500  0.0500  -1.6710   0.0000   0.0000   0.0000   0.2479
  -4.300  -0.4946   0.00760   0.00156   0.0018  0.0500  0.0500  -1.6236   0.0000   0.0000   0.0000   0.2480
  -4.200  -0.4832   0.00759   0.00154   0.0018  0.0500  0.0500  -1.5766   0.0000   0.0000   0.0000   0.2481
  -4.100  -0.4717   0.00757   0.00152   0.0017  0.0500  0.0500  -1.5299   0.0000   0.0000   0.0000   0.2481
  -4.000  -0.4603   0.00756   0.00150   0.0017  0.0500  0.0500  -1.4837   0.0000   0.0000   0.0000   0.2482
  -3.900  -0.4488   0.00754   0.00148   0.0016  0.0500  0.0500  -1.4392   0.0000   0.0000   0.0000   0.2483
  -3.800  -0.4374   0.00753   0.00146   0.0016  0.0500  0.0500  -1.3967   0.0000   0.0000   0.0000   0.2483
  -3.700  -0.4259   0.00752   0.00145   0.0016  0.0500  0.0500  -1.3547   0.0000   0.0000   0.0000   0.2484
  -3.600  -0.4144   0.00750   0.00143   0.0015  0.0500  0.0500  -1.3130   0.0000   0.0000   0.0000   0.2485
  -3.500  -0.4030   0.00749   0.00141   0.0015  0.0500  0.0500  -1.2716   0.0000   0.0000   0.0000   0.2485
  -3.400  -0.3915   0.00748   0.00140   0.0015  0.0500  0.0500  -1.2306   0.0000   0.0000   0.0000   0.2486
  -3.300  -0.3800   0.00747   0.00138   0.0014  0.0500  0.0500  -1.1926   0.0000   0.0000   0.0000   0.2486
  -3.200  -0.3685   0.00746   0.00137   0.0014  0.0500  0.0500  -1.1550   0.0000   0.0000   0.0000   0.2487
  -3.100  -0.3570   0.00744   0.00135   0.0013  0.0500  0.0500  -1.1176   0.0000   0.0000   0.0000   0.2487
  -3.000  -0.3455   0.00743   0.00134   0.0013  0.0500  0.0500  -1.0822   0.0000   0.0000   0.0000   0.2488
  -2.900  -0.3341   0.00742   0.00132   0.0013  0.0500  0.0500  -1.0479   0.0000   0.0000   0.0000   0.2488
  -2.800  -0.3226   0.00741   0.00131   0.0012  0.0500  0.0500  -1.0139   0.0000   0.0000   0.0000   0.2489
  -2.700  -0.3111   0.00740   0.00130   0.0012  0.0500  0.0500  -0.9801   0.0000   0.0000   0.0000   0.2489
  -2.600  -0.2996   0.00739   0.00129   0.0011  0.0500  0.0500  -0.9489   0.0000   0.0000   0.0000   0.2490
  -2.500  -0.2881   0.00738   0.00128   0.0011  0.0500  0.0500  -0.9179   0.0000   0.0000   0.0000   0.2490
  -2.400  -0.2766   0.00738   0.00126   0.0011  0.0500  0.0500  -0.8873   0.0000   0.0000   0.0000   0.2491
  -2.300  -0.2651   0.00737   0.00125   0.0010  0.0500  0.0500  -0.8588   0.0000   0.0000   0.0000   0.2491
  -2.200  -0.2535   0.00736   0.00124   0.0010  0.0500  0.0500  -0.8305   0.0000   0.0000   0.0000   0.2491
  -2.100  -0.2420   0.00735   0.00123   0.0009  0.0500  0.0500  -0.8030   0.0000   0.0000   0.0000   0.2492
  -2.000  -0.2305   0.00735   0.00122   0.0009  0.0500  0.0500  -0.7770   0.0000   0.0000   0.0000   0.2492
  -1.900  -0.2190   0.00734   0.00122   0.0008  0.0500  0.0500  -0.7512   0.0000   0.0000   0.0000   0.2492
  -1.800  -0.2075   0.00733   0.00121   0.0008  0.0500  0.0500  -0.7267   0.0000   0.0000   0.0000   0.2493
  -1.700  -0.1960   0.00733   0.00120   0.0008  0.0500  0.0500  -0.7046   0.0000   0.0000   0.0000   0.2493
  -1.600  -0.1845   0.00732   0.00119   0.0007  0.0500  0.0500  -0.6827   0.0000   0.0000   0.0000   0.2493
  -1.500  -0.1729   0.00731   0.00118   0.0007  0.0500  0.0500  -0.6608   0.0000   0.0000   0.0000   0.2494
  -1.400  -0.1614   0.00731   0.00118   0.0006  0.0500  0.0500  -0.6392   0.0000   0.0000   0.0000   0.2494
  -1.300  -0.1499   0.00731   0.00117   0.0006  0.0500  0.0500  -0.6176   0.0000   0.0000   0.0000   0.2494
  -1.200  -0.1384   0.00730   0.00117   0.0005  0.0500  0.0500  -0.5962   0.0000   0.0000   0.0000   0.2494
  -1.100  -0.1268   0.00730   0.00116   0.0005  0.0500  0.0500  -0.5749   0.0000   0.0000   0.0000   0.2495
  -1.000  -0.1153   0.00729   0.00116   0.0005  0.0500  0.0500  -0.5538   0.0000   0.0000   0.0000   0.2495
  -0.900  -0.1038   0.00729   0.00115   0.0004  0.0500  0.0500  -0.5369   0.0000   0.0000   0.0000   0.2495
  -0.800  -0.0923   0.00729   0.00115   0.0004  0.0500  0.0500  -0.5215   0.0000   0.0000   0.0000   0.2495
  -0.700  -0.0807   0.00728   0.00115   0.0003  0.0500  0.0500  -0.5062   0.0000   0.0000   0.0000   0.2495
  -0.600  -0.0692   0.00728   0.00114   0.0003  0.0500  0.0500  -0.4910   0.0000   0.0000   0.0000   0.2495
  -0.500  -0.0577   0.00728   0.00114   0.0002  0.0500  0.0500  -0.4765   0.0000   0.0000   0.0000   0.2495
  -0.400  -0.0461   0.00728   0.00114   0.0002  0.0500  0.0500  -0.4625   0.0000   0.0000   0.0000   0.2495
  -0.300  -0.0346   0.00728   0.00114   0.0001  0.0500  0.0500  -0.4485   0.0000   0.0000   0.0000   0.2495
  -0.200  -0.0231   0.00728   0.00114   0.0001  0.0500  0.0500  -0.4353   0.0000   0.0000   0.0000   0.2496
  -0.100  -0.0115   0.00728   0.00114   0.0000  0.0500  0.0500  -0.4223   0.0000   0.0000   0.0000   0.2496
   0.000  -0.0000   0.00728   0.00114   0.0000  0.0500  0.0500  -0.4101   0.0000   0.0000   0.0000   0.8739
   0.100   0.0115   0.00728   0.00114  -0.0000  0.0500  0.0500  -0.4223   0.0000   0.0000   0.0000   0.2496
   0.200   0.0231   0.00728   0.00114  -0.0001  0.0500  0.0500  -0.4353   0.0000   0.0000   0.0000   0.2496
   0.300   0.0346   0.00728   0.00114  -0.0001  0.0500  0.0500  -0.4485   0.0000   0.0000   0.0000   0.2495
   0.400   0.0461   0.00728   0.00114  -0.0002  0.0500  0.0500  -0.4625   0.0000   0.0000   0.0000   0.2495
   0.500   0.0577   0.00728   0.00114  -0.0002  0.0500  0.0500  -0.4765   0.0000   0.0000   0.0000   0.2495
   0.600   0.0692   0.00728   0.00114  -0.0003  0.0500  0.0500  -0.4910   0.0000   0.0000   0.0000   0.2495
   0.700   0.0807   0.00728   0.00115  -0.0003  0.0500  0.0500  -0.5062   0.0000   0.0000   0.0000   0.2495
   0.800   0.0923   0.00729   0.00115  -0.0004  0.0500  0.0500  -0.5215   0.0000   0.0000   0.0000   0.2495
   0.900   0.1038   0.00729   0.00115  -0.0004  0.0500  0.0500  -0.5369   0.0000   0.0000   0.0000   0.2495
   1.000   0.1153   0.00729   0.00116  -0.0005  0.0500  0.0500  -0.5537   0.0000   0.0000   0.0000   0.2495
   1.100   0.1268   0.00730   0.00116  -0.0005  0.0500  0.0500  -0.5749   0.0000   0.0000   0.0000   0.2495
   1.200   0.1384   0.00730   0.00117  -0.0005  0.0500  0.0500  -0.5961   0.0000   0.0000   0.0000   0.2494
   1.300   0.1499   0.00731   0.00117  -0.0006  0.0500  0.0500  -0.6175   0.0000   0.0000   0.0000   0.2494
   1.400   0.1614   0.00731   0.00118  -0.0006  0.0500  0.0500  -0.6391   0.0000   0.0000   0.0000   0.2494
   1.500   0.1729   0.00731   0.00118  -0.0007  0.0500  0.0500  -0.6608   0.0000   0.0000   0.0000   0.2494
   1.600   0.1845   0.00732   0.00119  -0.0007  0.0500  0.0500  -0.6826   0.0000   0.0000   0.0000   0.2493
   1.700   0.1960   0.00733   0.00120  -0.0008  0.0500  0.0500  -0.7045   0.0000   0.0000   0.0000   0.2493
   1.800   0.2075   0.00733   0.00121  -0.0008  0.0500  0.0500  -0.7267   0.0000   0.0000   0.0000   0.2493
   1.900   0.2190   0.00734   0.00122  -0.0008  0.0500  0.0500  -0.7511   0.0000   0.0000   0.0000   0.2493
   2.000   0.2305   0.00735   0.00122  -0.0009  0.0500  0.0500  -0.7769   0.0000   0.0000   0.0000   0.2492
   2.100   0.2420   0.00735   0.00123  -0.0009  0.0500  0.0500  -0.8028   0.0000   0.0000   0.0000   0.2492
   2.200   0.2536   0.00736   0.00124  -0.0010  0.0500  0.0500  -0.8305   0.0000   0.0000   0.0000   0.2491
   2.300   0.2651   0.00737   0.00125  -0.0010  0.0500  0.0500  -0.8588   0.0000   0.0000   0.0000   0.2491
   2.400   0.2766   0.00738   0.00126  -0.0011  0.0500  0.0500  -0.8873   0.0000   0.0000   0.0000   0.2491
   2.500   0.2881   0.00738   0.00128  -0.0011  0.0500  0.0500  -0.9179   0.0000   0.0000   0.0000   0.2490
   2.600   0.2996   0.00739   0.00129  -0.0011  0.0500  0.0500  -0.9489   0.0000   0.0000   0.0000   0.2490
   2.700   0.3111   0.00740   0.00130  -0.0012  0.0500  0.0500  -0.9801   0.0000   0.0000   0.0000   0.2489
   2.800   0.3226   0.00741   0.00131  -0.0012  0.0500  0.0500  -1.0139   0.0000   0.0000   0.0000   0.2489
   2.900   0.3341   0.00742   0.00132  -0.0013  0.0500  0.0500  -1.0479   0.0000   0.0000   0.0000   0.2488
   3.000   0.3456   0.00743   0.00134  -0.0013  0.0500  0.0500  -1.0822   0.0000   0.0000   0.0000   0.2488
   3.100   0.3570   0.00744   0.00135  -0.0013  0.0500  0.0500  -1.1176   0.0000   0.0000   0.0000   0.2487
   3.200   0.3685   0.00746   0.00137  -0.0014  0.0500  0.0500  -1.1550   0.0000   0.0000   0.0000   0.2487
   3.300   0.3800   0.00747   0.00138  -0.0014  0.0500  0.0500  -1.1926   0.0000   0.0000   0.0000   0.2486
   3.400   0.3915   0.00748   0.00140  -0.0015  0.0500  0.0500  -1.2306   0.0000   0.0000   0.0000   0.2486
   3.500   0.4030   0.00749   0.00141  -0.0015  0.0500  0.0500  -1.2716   0.0000   0.0000   0.0000   0.2485
   3.600   0.4144   0.00750   0.00143  -0.0015  0.0500  0.0500  -1.3130   0.0000   0.0000   0.0000   0.2485
   3.700   0.4259   0.00752   0.00145  -0.0016  0.0500  0.0500  -1.3547   0.0000   0.0000   0.0000   0.2484
   3.800   0.4374   0.00753   0.00146  -0.0016  0.0500  0.0500  -1.3968   0.0000   0.0000   0.0000   0.2483
   3.900   0.4488   0.00754   0.00148  -0.0016  0.0500  0.0500  -1.4392   0.0000   0.0000   0.0000   0.2483
   4.000   0.4603   0.00756   0.00150  -0.0017  0.0500  0.0500  -1.4837   0.0000   0.0000   0.0000   0.2482
   4.100   0.4717   0.00757   0.00152  -0.0017  0.0500  0.0500  -1.5300   0.0000   0.0000   0.0000   0.2481
   4.200   0.4832   0.00759   0.00154  -0.0018  0.0500  0.0500  -1.5766   0.0000   0.0000   0.0000   0.2481
   4.300   0.4946   0.00760   0.00156  -0.0018  0.0500  0.0500  -1.6236   0.0000   0.0000   0.0000   0.2480
   4.400   0.5061   0.00762   0.00158  -0.0018  0.0500  0.0500  -1.6710   0.0000   0.0000   0.0000   0.2479
   4.500   0.5175   0.00764   0.00160  -0.0019  0.0500  0.0500  -1.7191   0.0000   0.0000   0.0000   0.2478
   4.600   0.5289   0.00765   0.00162  -0.0019  0.0500  0.0500  -1.7708   0.0000   0.0000   0.0000   0.2478
   4.700   0.5404   0.00767   0.00164  -0.0019  0.0500  0.0500  -1.8229   0.0000   0.0000   0.0000   0.2477
   4.800   0.5518   0.00769   0.00167  -0.0020  0.0500  0.0500  -1.8754   0.0000   0.0000   0.0000   0.2476
   4.900   0.5632   0.00770   0.00169  -0.0020  0.0500  0.0500  -1.9285   0.0000   0.0000   0.0000   0.2475
   5.000   0.5746   0.00772   0.00171  -0.0020  0.0500  0.0500  -1.9819   0.0000   0.0000   0.0000   0.2474
   5.100   0.5860   0.00774   0.00174  -0.0020  0.0500  0.0500  -2.0358   0.0000   0.0000   0.0000   0.2473
   5.200   0.5972   0.00779   0.00177  -0.0020  0.0473  0.0500  -2.0898   0.0000   0.0000   0.0000   0.2472
   5.300   0.6085   0.00782   0.00181  -0.0021  0.0456  0.0500  -2.1482   0.0000   0.0000   0.0000   0.2471
   5.400   0.6198   0.00786   0.00184  -0.0021  0.0445  0.0500  -2.2070   0.0000   0.0000   0.0000   0.2470
   5.500   0.6310   0.00790   0.00188  -0.0021  0.0429  0.0500  -2.2660   0.0000   0.0000   0.0000   0.2468
   5.600   0.6421   0.00795   0.00192  -0.0021  0.0408  0.0500  -2.3254   0.0000   0.0000   0.0000   0.2467
   5.700   0.6534   0.00799   0.00196  -0.0021  0.0392  0.0500  -2.3857   0.0000   0.0000   0.0000   0.2466
   5.800   0.6647   0.00802   0.00199  -0.0021  0.0386  0.0500  -2.4467   0.0000   0.0000   0.0000   0.2465
   5.900   0.6759   0.00806   0.00203  -0.0021  0.0376  0.0500  -2.5080   0.0000   0.0000   0.0000   0.2463
   6.000   0.6870   0.00811   0.00208  -0.0021  0.0361  0.0500  -2.5694   0.0000   0.0000   0.0000   0.2462
   6.100   0.6981   0.00816   0.00212  -0.0021  0.0341  0.0500  -2.6312   0.0000   0.0000   0.0000   0.2460
   6.200   0.7094   0.00820   0.00216  -0.0021  0.0332  0.0500  -2.6979   0.0000   0.0000   0.0000   0.2459
   6.300   0.7206   0.00824   0.00220  -0.0021  0.0326  0.0500  -2.7657   0.0000   0.0000   0.0000   0.2458
   6.400   0.7317   0.00828   0.00224  -0.0021  0.0316  0.0500  -2.8338   0.0000   0.0000   0.0000   0.2457
   6.500   0.7428   0.00834   0.00229  -0.0020  0.0305  0.0500  -2.9022   0.0000   0.0000   0.0000   0.2455
   6.600   0.7539   0.00839   0.00234  -0.0020  0.0291  0.0500  -2.9711   0.0000   0.0000   0.0000   0.2454
   6.700   0.7651   0.00843   0.00238  -0.0020  0.0283  0.0500  -3.0411   0.0000   0.0000   0.0000   0.2452
   6.800   0.7763   0.00847   0.00242  -0.0020  0.0280  0.0500  -3.1118   0.0000   0.0000   0.0000   0.2451
   6.900   0.7874   0.00851   0.00247  -0.0020  0.0274  0.0500  -3.1829   0.0000   0.0000   0.0000   0.2450
   7.000   0.7985   0.00856   0.00252  -0.0020  0.0267  0.0500  -3.2543   0.0000   0.0000   0.0000   0.2448
   7.100   0.8095   0.00862   0.00257  -0.0020  0.0258  0.0500  -3.3260   0.0000   0.0000   0.0000   0.2447
   7.200   0.8206   0.00867   0.00263  -0.0020  0.0246  0.0500  -3.3982   0.0000   0.0000   0.0000   0.2445
   7.300   0.8317   0.00872   0.00267  -0.0019  0.0239  0.0500  -3.4713   0.0000   0.0000   0.0000   0.2444
   7.400   0.8428   0.00876   0.00272  -0.0019  0.0236  0.0500  -3.5463   0.0000   0.0000   0.0000   0.2442
   7.500   0.8539   0.00881   0.00277  -0.0019  0.0232  0.0500  -3.6256   0.0000   0.0000   0.0000   0.2441
   7.600   0.8649   0.00886   0.00282  -0.0019  0.0226  0.0500  -3.7052   0.0000   0.0000   0.0000   0.2439
   7.700   0.8758   0.00892   0.00288  -0.0019  0.0220  0.0500  -3.7852   0.0000   0.0000   0.0000   0.2438
   7.800   0.8868   0.00898   0.00294  -0.0018  0.0212  0.0500  -3.8657   0.0000   0.0000   0.0000   0.2436
   7.900   0.8978   0.00904   0.00300  -0.0018  0.0204  0.0500  -3.9469   0.0000   0.0000   0.0000   0.2434
   8.000   0.9088   0.00909   0.00305  -0.0018  0.0201  0.0500  -4.0293   0.0000   0.0000   0.0000   0.2433
   8.100   0.9198   0.00914   0.00310  -0.0018  0.0199  0.0500  -4.1125   0.0000   0.0000   0.0000   0.2431
   8.200   0.9308   0.00918   0.00316  -0.0018  0.0197  0.0500  -4.1961   0.0000   0.0000   0.0000   0.2430
   8.300   0.9418   0.00924   0.00322  -0.0017  0.0193  0.0500  -4.2802   0.0000   0.0000   0.0000   0.2428
   8.400   0.9527   0.00930   0.00328  -0.0017  0.0189  0.0500  -4.3647   0.0000   0.0000   0.0000   0.2427
   8.500   0.9636   0.00936   0.00334  -0.0016  0.0185  0.0500  -4.4496   0.0000   0.0000   0.0000   0.2425
   8.600   0.9744   0.00943   0.00341  -0.0016  0.0179  0.0500  -4.5347   0.0000   0.0000   0.0000   0.2423
   8.700   0.9852   0.00950   0.00348  -0.0016  0.0173  0.0500  -4.6205   0.0000   0.0000   0.0000   0.2421
   8.800   0.9961   0.00956   0.00354  -0.0015  0.0167  0.0500  -4.7069   0.0000   0.0000   0.0000   0.2419
   8.900   1.0070   0.00961   0.00360  -0.0015  0.0167  0.0500  -4.7949   0.0000   0.0000   0.0000   0.2418
   9.000   1.0179   0.00967   0.00366  -0.0014  0.0165  0.0500  -4.8835   0.0000   0.0000   0.0000   0.2416
   9.100   1.0288   0.00973   0.00372  -0.0014  0.0163  0.0500  -4.9724   0.0000   0.0000   0.0000   0.2414
   9.200   1.0396   0.00979   0.00379  -0.0014  0.0161  0.0500  -5.0648   0.0000   0.0000   0.0000   0.2413
   9.300   1.0504   0.00985   0.00386  -0.0013  0.0158  0.0500  -5.1599   0.0000   0.0000   0.0000   0.2411
   9.400   1.0611   0.00993   0.00393  -0.0013  0.0155  0.0500  -5.2555   0.0000   0.0000   0.0000   0.2409
   9.500   1.0718   0.01000   0.00401  -0.0012  0.0151  0.0500  -5.3514   0.0000   0.0000   0.0000   0.2407
   9.600   1.0825   0.01008   0.00409  -0.0011  0.0146  0.0500  -5.4478   0.0000   0.0000   0.0000   0.2405
   9.700   1.0931   0.01016   0.00417  -0.0010  0.0142  0.0500  -5.5448   0.0000   0.0000   0.0000   0.2403
   9.800   1.1038   0.01023   0.00424  -0.0010  0.0138  0.0500  -5.6425   0.0000   0.0000   0.0000   0.2401
   9.900   1.1145   0.01029   0.00431  -0.0009  0.0137  0.0500  -5.7420   0.0000   0.0000   0.0000   0.2399
  10.000   1.1253   0.01035   0.00438  -0.0009  0.0137  0.0500  -5.8421   0.0000   0.0000   0.0000   0.2397
  10.100   1.1360   0.01042   0.00445  -0.0008  0.0136  0.0500  -5.9428   0.0000   0.0000   0.0000   0.2395
  10.200   1.1467   0.01048   0.00452  -0.0008  0.0135  0.0500  -6.0440   0.0000   0.0000   0.0000   0.2393
  10.300   1.1573   0.01055   0.00460  -0.0007  0.0133  0.0500  -6.1456   0.0000   0.0000   0.0000   0.2391
  10.400   1.1679   0.01063   0.00468  -0.0006  0.0132  0.0500  -6.2478   0.0000   0.0000   0.0000   0.2389
  10.500   1.1785   0.01070   0.00476  -0.0005  0.0130  0.0500  -6.3503   0.0000   0.0000   0.0000   0.2387
  10.600   1.1889   0.01079   0.00485  -0.0005  0.0128  0.0500  -6.4531   0.0000   0.0000   0.0000   0.2385
  10.700   1.1994   0.01087   0.00494  -0.0004  0.0125  0.0500  -6.5563   0.0000   0.0000   0.0000   0.2383
  10.800   1.2098   0.01097   0.00503  -0.0003  0.0122  0.0500  -6.6597   0.0000   0.0000   0.0000   0.2381
  10.900   1.2201   0.01106   0.00512  -0.0001  0.0119  0.0500  -6.7636   0.0000   0.0000   0.0000   0.2378
  11.000   1.2305   0.01115   0.00522  -0.0000  0.0116  0.0500  -6.8680   0.0000   0.0000   0.0000   0.2376
  11.100   1.2408   0.01124   0.00532   0.0001  0.0113  0.0500  -6.9728   0.0000   0.0000   0.0000   0.2374
  11.200   1.2512   0.01133   0.00541   0.0002  0.0111  0.0500  -7.0789   0.0000   0.0000   0.0000   0.2371
  11.300   1.2617   0.01140   0.00549   0.0002  0.0111  0.0500  -7.1868   0.0000   0.0000   0.0000   0.2369
  11.400   1.2721   0.01147   0.00557   0.0003  0.0111  0.0500  -7.2952   0.0000   0.0000   0.0000   0.2367
  11.500   1.2825   0.01155   0.00566   0.0004  0.0110  0.0500  -7.4041   0.0000   0.0000   0.0000   0.2365
  11.600   1.2929   0.01163   0.00574   0.0005  0.0109  0.0500  -7.5134   0.0000   0.0000   0.0000   0.2363
  11.700   1.3032   0.01172   0.00584   0.0006  0.0108  0.0500  -7.6231   0.0000   0.0000   0.0000   0.2360
  11.800   1.3135   0.01180   0.00593   0.0007  0.0107  0.0500  -7.7334   0.0000   0.0000   0.0000   0.2358
  11.900   1.3237   0.01189   0.00603   0.0009  0.0106  0.0500  -7.8496   0.0000   0.0000   0.0000   0.2356
  12.000   1.3339   0.01199   0.00613   0.0010  0.0105  0.0500  -7.9662   0.0000   0.0000   0.0000   0.2353
  12.100   1.3440   0.01209   0.00623   0.0011  0.0104  0.0500  -8.0832   0.0000   0.0000   0.0000   0.2351
  12.200   1.3540   0.01219   0.00634   0.0013  0.0102  0.0500  -8.2004   0.0000   0.0000   0.0000   0.2348
  12.300   1.3640   0.01230   0.00645   0.0014  0.0101  0.0500  -8.3179   0.0000   0.0000   0.0000   0.2346
  12.400   1.3739   0.01241   0.00656   0.0016  0.0099  0.0500  -8.4357   0.0000   0.0000   0.0000   0.2343
  12.500   1.3838   0.01252   0.00668   0.0017  0.0097  0.0500  -8.5538   0.0000   0.0000   0.0000   0.2340
  12.600   1.3937   0.01263   0.00680   0.0019  0.0095  0.0500  -8.6724   0.0000   0.0000   0.0000   0.2338
  12.700   1.4035   0.01275   0.00692   0.0021  0.0093  0.0500  -8.7913   0.0000   0.0000   0.0000   0.2335
  12.800   1.4133   0.01286   0.00705   0.0022  0.0091  0.0500  -8.9106   0.0000   0.0000   0.0000   0.2332
  12.900   1.4230   0.01298   0.00717   0.0024  0.0089  0.0500  -9.0301   0.0000   0.0000   0.0000   0.2329
  13.000   1.4329   0.01309   0.00729   0.0026  0.0088  0.0500  -9.1516   0.0000   0.0000   0.0000   0.2327
  13.100   1.4428   0.01318   0.00739   0.0027  0.0088  0.0500  -9.2748   0.0000   0.0000   0.0000   0.2324
  13.200   1.4527   0.01328   0.00750   0.0029  0.0088  0.0500  -9.3984   0.0000   0.0000   0.0000   0.2321
  13.300   1.4625   0.01338   0.00761   0.0031  0.0088  0.0500  -9.5225   0.0000   0.0000   0.0000   0.2319
  13.400   1.4723   0.01349   0.00772   0.0032  0.0088  0.0500  -9.6469   0.0000   0.0000   0.0000   0.2316
  13.500   1.4820   0.01359   0.00783   0.0034  0.0087  0.0500  -9.7718   0.0000   0.0000   0.0000   0.2313
  13.600   1.4917   0.01370   0.00795   0.0036  0.0087  0.0500  -9.8970   0.0000   0.0000   0.0000   0.2310
  13.700   1.5013   0.01380   0.00806   0.0038  0.0087  0.0500  -10.0225   0.0000   0.0000   0.0000   0.2308
  14.400   1.5647   0.01350   0.00923   0.0054  0.0082  1.0000  -10.8844   0.0000   0.0000   0.0000   0.2286
  14.500   1.5738   0.01364   0.00938   0.0057  0.0081  1.0000  -11.0115   0.0000   0.0000   0.0000   0.2283
  14.600   1.5828   0.01379   0.00953   0.0059  0.0081  1.0000  -11.1386   0.0000   0.0000   0.0000   0.2279
  14.700   1.5918   0.01394   0.00968   0.0062  0.0080  1.0000  -11.2656   0.0000   0.0000   0.0000   0.2276
  14.800   1.6006   0.01410   0.00984   0.0065  0.0079  1.0000  -11.3925   0.0000   0.0000   0.0000   0.2273
  14.900   1.6094   0.01426   0.01001   0.0068  0.0078  1.0000  -11.5194   0.0000   0.0000   0.0000   0.2269
  15.000   1.6180   0.01443   0.01017   0.0071  0.0076  1.0000  -11.6462   0.0000   0.0000   0.0000   0.2266


